data_04-010-1734
#Copyright 2021 International Centre for Diffraction Data. All rights reserved.

_audit_creation_date                  2021-12-16
_audit_creation_method                'Generated by PDF-4+ 2022 4.22.0.2'

_chemical_name_systematic             'Copper Vanadium Oxide'
_chemical_name_common                 'copper Vanadate, tricopper bis(vanadate(V))'
_chemical_formula_moiety              'Cu3 ( V O4 )2'
_chemical_formula_sum                 'Cu3 O8 V2'
_chemical_formula_weight              420.51
_chemical_melting_point               1053.0

_cell_length_a                        5.196(4)
_cell_length_b                        5.355(1)
_cell_length_c                        6.505(4)
_cell_angle_alpha                     69.22(3)
_cell_angle_beta                      88.69(4)
_cell_angle_gamma                     68.08(3)
_cell_formula_units_Z                 1
_cell_volume                          155.73
_symmetry_cell_setting                triclinic
_symmetry_space_group_name_H-M        P-1
_symmetry_Int_Tables_number           2

loop_
_symmetry_equiv_pos_site_id
_symmetry_equiv_pos_as_xyz
1 x,y,z
2 -x,-y,-z

loop_
_atom_site_label
_atom_site_type_symbol
_atom_site_fract_x
_atom_site_fract_y
_atom_site_fract_z
_atom_site_B_iso_or_equiv
_atom_site_symmetry_multiplicity
_atom_site_Wyckoff_symbol
_atom_site_occupancy
Cu1 Cu 0.0 0.0 0.0 0.497 1 a 1.0
Cu2 Cu 0.2859 0.21618 0.31047 0.8 2 i 1.0
V3 V 0.3712 0.3538 0.78267 0.374 2 i 1.0
O4 O 0.8601 0.313 0.3408 0.84 2 i 1.0
O5 O 0.31 0.6289 0.1652 0.71 2 i 1.0
O6 O 0.2365 0.1929 0.0267 0.59 2 i 1.0
O7 O 0.386 0.1686 0.607 0.84 2 i 1.0

