data_04-015-0027
#Copyright 2021 International Centre for Diffraction Data. All rights reserved.

_audit_creation_date                  2021-12-16
_audit_creation_method                'Generated by PDF-4+ 2022 4.22.0.2'

_chemical_name_systematic             'Iron Oxide'
_chemical_formula_moiety              'Fe2.67 O4'
_chemical_formula_sum                 'Fe2.67 O4'
_chemical_formula_weight              213.10

_cell_length_a                        8.3474(2)
_cell_length_b                        8.3474(2)
_cell_length_c                        8.3474(2)
_cell_angle_alpha                     90
_cell_angle_beta                      90
_cell_angle_gamma                     90
_cell_formula_units_Z                 8
_cell_volume                          581.64
_symmetry_cell_setting                cubic
_symmetry_space_group_name_H-M        P4332
_symmetry_Int_Tables_number           212

loop_
_symmetry_equiv_pos_site_id
_symmetry_equiv_pos_as_xyz
1 x,y,z
2 x+1/2,-y+1/2,-z
3 -x,y+1/2,-z+1/2
4 -x+1/2,-y,z+1/2
5 z,x,y
6 z+1/2,-x+1/2,-y
7 -z,x+1/2,-y+1/2
8 -z+1/2,-x,y+1/2
9 y,z,x
10 y+1/2,-z+1/2,-x
11 -y,z+1/2,-x+1/2
12 -y+1/2,-z,x+1/2
13 -x+1/4,-z+1/4,-y+1/4
14 x+3/4,-z+3/4,y+1/4
15 -y+1/4,-x+1/4,-z+1/4
16 y+3/4,-x+3/4,z+1/4
17 -z+1/4,-y+1/4,-x+1/4
18 z+3/4,-y+3/4,x+1/4
19 -x+3/4,z+1/4,y+3/4
20 x+1/4,z+3/4,-y+3/4
21 -y+3/4,x+1/4,z+3/4
22 y+1/4,x+3/4,-z+3/4
23 -z+3/4,y+1/4,x+3/4
24 z+1/4,y+3/4,-x+3/4

loop_
_atom_site_label
_atom_site_type_symbol
_atom_site_fract_x
_atom_site_fract_y
_atom_site_fract_z
_atom_site_U_iso_or_equiv
_atom_site_symmetry_multiplicity
_atom_site_Wyckoff_symbol
_atom_site_occupancy
Fe1 Fe 0.9921 0.9921 0.9921 . 8 c 1.0
Fe2 Fe 0.865 0.615 0.875 . 12 d 1.0
Fe3 Fe 0.375 0.125 0.875 . 4 b 0.33
O4 O 0.861 0.861 0.861 . 8 c 1.0
O5 O 0.372 0.377 0.876 . 24 e 1.0

