data_04-014-7214
#Copyright 2021 International Centre for Diffraction Data. All rights reserved.

_audit_creation_date                  2021-12-16
_audit_creation_method                'Generated by PDF-4+ 2022 4.22.0.2'

_chemical_name_systematic             'Iron Oxide'
_chemical_name_common                 '\g-Fe2 O3, maghemite-Q, syn'
_chemical_formula_moiety              'Fe2 O3'
_chemical_formula_sum                 'Fe2 O3'
_chemical_formula_weight              159.69

_cell_length_a                        8.332(1)
_cell_length_b                        8.332(1)
_cell_length_c                        25.113(6)
_cell_angle_alpha                     90
_cell_angle_beta                      90
_cell_angle_gamma                     90
_cell_formula_units_Z                 32
_cell_volume                          1743.40
_symmetry_cell_setting                tetragonal
_symmetry_space_group_name_H-M        P41212
_symmetry_Int_Tables_number           92

loop_
_symmetry_equiv_pos_site_id
_symmetry_equiv_pos_as_xyz
1 x,y,z
2 -x,-y,z+1/2
3 -y+1/2,x+1/2,z+1/4
4 y+1/2,-x+1/2,z+3/4
5 y,x,-z
6 -y,-x,-z+1/2
7 -x+1/2,y+1/2,-z+1/4
8 x+1/2,-y+1/2,-z+3/4

loop_
_atom_site_label
_atom_site_type_symbol
_atom_site_fract_x
_atom_site_fract_y
_atom_site_fract_z
_atom_site_U_iso_or_equiv
_atom_site_symmetry_multiplicity
_atom_site_Wyckoff_symbol
_atom_site_occupancy
Fe1 Fe 0.751 0.997 0.0417 0.0144 8 b 1.0
Fe2 Fe 0.751 0.997 0.375 0.0144 8 b 1.0
Fe3 Fe 0.751 0.997 0.7083 0.0144 8 b 1.0
Fe4 Fe 0.621 0.621 0.0 0.0144 4 a 1.0
Fe5 Fe 0.621 0.621 0.333 0.0144 8 b 1.0
Fe6 Fe 0.369 0.869 0.998 0.0144 8 b 1.0
Fe7 Fe 0.369 0.869 1.331 0.0144 8 b 1.0
Fe8 Fe 0.369 0.869 1.664 0.0144 8 b 1.0
Fe9 Fe 0.128 0.128 0.0 0.0144 4 a 1.0
O10 O 0.612 0.881 0.0 0.0251 8 b 1.0
O11 O 0.612 0.881 0.333 0.0251 8 b 1.0
O12 O 0.612 0.881 0.666 0.0251 8 b 1.0
O13 O 0.11 0.317 0.003 0.0251 8 b 1.0
O14 O 0.11 0.317 0.336 0.0251 8 b 1.0
O15 O 0.11 0.317 0.669 0.0251 8 b 1.0
O16 O 0.133 0.853 0.0 0.0251 8 b 1.0
O17 O 0.133 0.853 0.333 0.0251 8 b 1.0
O18 O 0.133 0.853 0.666 0.0251 8 b 1.0
O19 O 0.385 0.626 0.006 0.0251 8 b 1.0
O20 O 0.385 0.626 0.339 0.0251 8 b 1.0
O21 O 0.385 0.626 0.672 0.0251 8 b 1.0

