data_04-023-9405
#Copyright 2021 International Centre for Diffraction Data. All rights reserved.

_audit_creation_date                  2021-12-16
_audit_creation_method                'Generated by PDF-4+ 2022 4.22.0.2'

_chemical_name_systematic             'Iron Oxide'
_chemical_formula_moiety              'Fe5 O7'
_chemical_formula_sum                 'Fe5 O7'
_chemical_formula_weight              391.22

_cell_length_a                        9.208(7)
_cell_length_b                        2.7327(10)
_cell_length_c                        8.270(5)
_cell_angle_alpha                     90
_cell_angle_beta                      105.50(8)
_cell_angle_gamma                     90
_cell_formula_units_Z                 2
_cell_volume                          200.53
_symmetry_cell_setting                monoclinic
_symmetry_space_group_name_H-M        C2/m
_symmetry_Int_Tables_number           12

loop_
_symmetry_equiv_pos_site_id
_symmetry_equiv_pos_as_xyz
1 x,y,z
2 -x,-y,-z
3 x,-y,z
4 -x,y,-z
5 x+1/2,y+1/2,z
6 -x+1/2,-y+1/2,-z
7 x+1/2,-y+1/2,z
8 -x+1/2,y+1/2,-z

loop_
_atom_site_label
_atom_site_type_symbol
_atom_site_fract_x
_atom_site_fract_y
_atom_site_fract_z
_atom_site_U_iso_or_equiv
_atom_site_symmetry_multiplicity
_atom_site_Wyckoff_symbol
_atom_site_occupancy
Fe1 Fe 0.3019 0.0 0.1931 0.0123 4 i 1.0
O2 O 0.038 0.0 0.783 0.022 4 i 1.0
Fe3 Fe 0.0 0.0 0.0 0.014 2 a 1.0
O4 O 0.25 0.0 0.635 0.016 4 i 1.0
Fe5 Fe 0.1094 0.0 0.4145 0.016 4 i 1.0
O6 O 0.343 0.0 0.948 0.014 4 i 1.0
O7 O 0.5 0.0 0.5 0.031 2 d 1.0

