data_04-017-0735
#Copyright 2021 International Centre for Diffraction Data. All rights reserved.

_audit_creation_date                  2021-12-16
_audit_creation_method                'Generated by PDF-4+ 2022 4.22.0.2'

_chemical_name_systematic             'Copper Iron Vanadate'
_chemical_name_common                 '\b-Cu3 Fe4 ( V O4 )6'
_chemical_formula_moiety              'Cu3 Fe4 ( V O4 )6'
_chemical_formula_sum                 'Cu3 Fe4 O24 V6'
_chemical_formula_weight              1103.64

_cell_length_a                        6.600(3)
_cell_length_b                        8.048(4)
_cell_length_c                        9.759(5)
_cell_angle_alpha                     106.08(3)
_cell_angle_beta                      103.72(3)
_cell_angle_gamma                     102.28(2)
_cell_formula_units_Z                 1
_cell_volume                          461.86
_symmetry_cell_setting                triclinic
_symmetry_space_group_name_H-M        P-1
_symmetry_Int_Tables_number           2

loop_
_symmetry_equiv_pos_site_id
_symmetry_equiv_pos_as_xyz
1 x,y,z
2 -x,-y,-z

loop_
_atom_site_label
_atom_site_type_symbol
_atom_site_fract_x
_atom_site_fract_y
_atom_site_fract_z
_atom_site_B_iso_or_equiv
_atom_site_symmetry_multiplicity
_atom_site_Wyckoff_symbol
_atom_site_occupancy
Cu1 Cu 0.0 0.5 0.5 1.7 1 g 1.0
Cu2 Cu 0.7226 0.7085 0.2093 1.6 2 i 1.0
Fe3 Fe 0.3805 0.9487 0.6078 0.7 2 i 1.0
Fe4 Fe 0.041 0.2035 0.0091 0.8 2 i 1.0
V5 V 0.8917 0.8998 0.6644 0.6 2 i 1.0
V6 V 0.2208 0.6546 0.2699 0.6 2 i 1.0
V7 V 0.5903 0.2681 0.1236 0.6 2 i 1.0
O8 O 0.0778 0.0591 0.1444 0.9 2 i 1.0
O9 O 0.5611 0.1363 0.2296 1.6 2 i 1.0
O10 O 0.1765 0.4381 0.1833 1.3 2 i 1.0
O11 O 0.996 0.2843 0.8319 1.2 2 i 1.0
O12 O 0.2396 0.7842 0.9721 1.6 2 i 1.0
O13 O 0.8715 0.9775 0.3506 1.1 2 i 1.0
O14 O 0.5267 0.234 0.7345 1.5 2 i 1.0
O15 O 0.3417 0.2373 0.9889 1.0 2 i 1.0
O16 O 0.3314 0.0362 0.4267 1.2 2 i 1.0
O17 O 0.2077 0.6913 0.4518 1.5 2 i 1.0
O18 O 0.6996 0.4854 0.2432 1.4 2 i 1.0
O19 O 0.1301 0.3131 0.4202 1.6 2 i 1.0

