data_04-009-8656
#Copyright 2021 International Centre for Diffraction Data. All rights reserved.

_audit_creation_date                  2021-12-15
_audit_creation_method                'Generated by PDF-4+ 2022 4.22.0.2'

_chemical_name_systematic             'Copper Iron Vanadium Oxide'
_chemical_name_common                 'copper Iron Vanadate'
_chemical_formula_moiety              'Cu1.5 Fe2 ( V O4 )3'
_chemical_formula_sum                 'Cu1.5 Fe2 O12 V3'
_chemical_formula_weight              551.82

_cell_length_a                        10.296(1)
_cell_length_b                        17.207(2)
_cell_length_c                        4.910(1)
_cell_angle_alpha                     90
_cell_angle_beta                      90
_cell_angle_gamma                     90
_cell_formula_units_Z                 4
_cell_volume                          869.87
_symmetry_cell_setting                orthorhombic
_symmetry_space_group_name_H-M        Pmcn
_symmetry_Int_Tables_number           62

loop_
_symmetry_equiv_pos_site_id
_symmetry_equiv_pos_as_xyz
1 x,y,z
2 -x,-y,-z
3 -x+1/2,-y+1/2,z+1/2
4 x+1/2,y+1/2,-z+1/2
5 x+1/2,-y,-z
6 -x+1/2,y,z
7 -x,y+1/2,-z+1/2
8 x,-y+1/2,z+1/2

loop_
_atom_site_label
_atom_site_type_symbol
_atom_site_fract_x
_atom_site_fract_y
_atom_site_fract_z
_atom_site_B_iso_or_equiv
_atom_site_symmetry_multiplicity
_atom_site_Wyckoff_symbol
_atom_site_occupancy
Cu1 Cu 0.75 0.7497 0.908 2.76001 4 c 0.5
Cu2 Cu 0.25 0.82189 0.2113 1.32634 4 c 1.0
Fe3 Fe 0.42409 0.97289 0.2476 0.46567 8 d 1.0
V4 V 0.25 0.05727 -0.2293 0.95667 4 c 1.0
V5 V 0.4716 0.84431 0.7208 0.76367 8 d 1.0
O6 O 0.6129 0.7959 0.6585 1.16667 8 d 1.0
O7 O 0.3859 0.8739 0.4245 1.0 8 d 1.0
O8 O 0.25 0.994 0.053 1.50001 4 c 1.0
O9 O 0.3849 0.0358 0.5747 1.50001 8 d 1.0
O10 O 0.5054 0.9272 0.913 1.06667 8 d 1.0
O11 O 0.75 0.6531 0.656 1.46667 4 c 1.0
O12 O 0.3766 0.7917 -0.0738 1.26667 8 d 1.0

loop_
_atom_site_aniso_label
_atom_site_aniso_B_11
_atom_site_aniso_B_12
_atom_site_aniso_B_13
_atom_site_aniso_B_22
_atom_site_aniso_B_23
_atom_site_aniso_B_33
Cu1 0.72 0.0 0.0 0.76 0.88 6.8
Cu2 0.929 0.0 0.0 1.79 -1.3 1.26
Fe3 0.577 0.05 -0.04 0.4 -0.07 0.42
V4 1.1 0.0 0.0 0.97 0.2 0.8
V5 0.801 0.28 -0.04 0.79 -0.03 0.7
O6 1.4 0.2 0.2 0.8 0.2 1.3
O7 1.1 -0.4 -0.4 1.0 -0.61 0.9
O8 1.9 0.0 0.0 1.5 -0.3 1.1
O9 2.2 -0.6 0.8 1.2 -0.57 1.1
O10 1.1 0.2 0.2 1.0 0.44 1.1
O11 1.4 0.0 0.0 1.8 0.3 1.2
O12 1.4 0.78 0.4 1.2 -0.34 1.2

