data_04-013-2998
#Copyright 2021 International Centre for Diffraction Data. All rights reserved.

_audit_creation_date                  2021-12-16
_audit_creation_method                'Generated by PDF-4+ 2022 4.22.0.2'

_chemical_name_systematic             'Copper Vanadium Oxide'
_chemical_formula_moiety              'Cu3 ( V O4 )2'
_chemical_formula_sum                 'Cu3 O8 V2'
_chemical_formula_weight              420.51

_cell_length_a                        6.2493(9)
_cell_length_b                        7.9936(9)
_cell_length_c                        6.3776(10)
_cell_angle_alpha                     90
_cell_angle_beta                      111.49(1)
_cell_angle_gamma                     90
_cell_formula_units_Z                 2
_cell_volume                          296.44
_symmetry_cell_setting                monoclinic
_symmetry_space_group_name_H-M        P21/c
_symmetry_Int_Tables_number           14

loop_
_symmetry_equiv_pos_site_id
_symmetry_equiv_pos_as_xyz
1 x,y,z
2 -x,-y,-z
3 -x,y+1/2,-z+1/2
4 x,-y+1/2,z+1/2

loop_
_atom_site_label
_atom_site_type_symbol
_atom_site_fract_x
_atom_site_fract_y
_atom_site_fract_z
_atom_site_U_iso_or_equiv
_atom_site_symmetry_multiplicity
_atom_site_Wyckoff_symbol
_atom_site_occupancy
Cu1 Cu 0.0 0.0 0.0 0.00867 2 a 1.0
Cu2 Cu 0.2638 0.2454 0.3915 0.00786 4 e 1.0
V3 V 0.251 0.6185 0.1418 0.00583 4 e 1.0
O4 O 0.0151 0.7622 0.0351 0.00941 4 e 1.0
O5 O 0.2324 0.4923 0.3573 0.00966 4 e 1.0
O6 O 0.5024 0.7261 0.2382 0.00997 4 e 1.0
O7 O 0.7518 0.5024 0.0727 0.00943 4 e 1.0

loop_
_atom_site_aniso_label
_atom_site_aniso_U_11
_atom_site_aniso_U_12
_atom_site_aniso_U_13
_atom_site_aniso_U_22
_atom_site_aniso_U_23
_atom_site_aniso_U_33
Cu1 0.0139 0.0 0.0118 0.0048 0.0 0.0131
Cu2 0.011 5.0E-4 0.0091 0.006 4.0E-4 0.0109
V3 0.0081 -2.0E-4 0.0059 0.0048 0.0 0.0072
O4 0.0093 -0.001 0.0093 0.0086 -0.0012 0.0145
O5 0.0143 0.0022 0.011 0.01 0.0029 0.0102
O6 0.0121 -0.003 0.0091 0.0108 -0.0022 0.0111
O7 0.0154 1.0E-4 0.0076 0.0069 -0.0012 0.0087

