data_04-007-1375
#Copyright 2021 International Centre for Diffraction Data. All rights reserved.

_audit_creation_date                  2021-12-16
_audit_creation_method                'Generated by PDF-4+ 2022 4.22.0.2'

_chemical_name_systematic             'Copper Oxide'
_chemical_formula_moiety              'Cu O'
_chemical_formula_sum                 'Cu O'
_chemical_formula_weight              79.54

_cell_length_a                        4.6837(5)
_cell_length_b                        3.4226(5)
_cell_length_c                        5.1288(6)
_cell_angle_alpha                     90
_cell_angle_beta                      99.54(1)
_cell_angle_gamma                     90
_cell_formula_units_Z                 4
_cell_volume                          81.08
_symmetry_cell_setting                monoclinic
_symmetry_space_group_name_H-M        C2/c
_symmetry_Int_Tables_number           15

loop_
_symmetry_equiv_pos_site_id
_symmetry_equiv_pos_as_xyz
1 x,y,z
2 -x,-y,-z
3 -x,y,-z+1/2
4 x,-y,z+1/2
5 x+1/2,y+1/2,z
6 -x+1/2,-y+1/2,-z
7 -x+1/2,y+1/2,-z+1/2
8 x+1/2,-y+1/2,z+1/2

loop_
_atom_site_label
_atom_site_type_symbol
_atom_site_fract_x
_atom_site_fract_y
_atom_site_fract_z
_atom_site_U_iso_or_equiv
_atom_site_symmetry_multiplicity
_atom_site_Wyckoff_symbol
_atom_site_occupancy
Cu1 Cu 0.25 0.25 0.0 0.00599 4 c 1.0
O2 O 0.0 0.4184 0.25 0.00761 4 e 1.0

loop_
_atom_site_aniso_label
_atom_site_aniso_U_11
_atom_site_aniso_U_12
_atom_site_aniso_U_13
_atom_site_aniso_U_22
_atom_site_aniso_U_23
_atom_site_aniso_U_33
Cu1 0.00573 0.00209 0.00134 0.00786 8.4E-4 0.00454
O2 0.0068 0.0 0.003 0.0111 0.0 0.0056

