data_04-007-9767
#Copyright 2021 International Centre for Diffraction Data. All rights reserved.

_audit_creation_date                  2021-12-16
_audit_creation_method                'Generated by PDF-4+ 2022 4.22.0.2'

_chemical_name_systematic             'Copper Oxide'
_chemical_name_common                 'copper(I) oxide'
_chemical_formula_moiety              'Cu2 O'
_chemical_formula_sum                 'Cu2 O'
_chemical_formula_weight              143.09

_cell_length_a                        4.2685(5)
_cell_length_b                        4.2685(5)
_cell_length_c                        4.2685(5)
_cell_angle_alpha                     90
_cell_angle_beta                      90
_cell_angle_gamma                     90
_cell_formula_units_Z                 2
_cell_volume                          77.77
_symmetry_cell_setting                cubic
_symmetry_space_group_name_H-M        Pn-3m
_symmetry_Int_Tables_number           224

loop_
_symmetry_equiv_pos_site_id
_symmetry_equiv_pos_as_xyz
1 x,y,z
2 -x,-y,-z
3 x,-y+1/2,-z+1/2
4 -x,y+1/2,z+1/2
5 -x+1/2,y,-z+1/2
6 x+1/2,-y,z+1/2
7 -x+1/2,-y+1/2,z
8 x+1/2,y+1/2,-z
9 z,x,y
10 -z,-x,-y
11 z,-x+1/2,-y+1/2
12 -z,x+1/2,y+1/2
13 -z+1/2,x,-y+1/2
14 z+1/2,-x,y+1/2
15 -z+1/2,-x+1/2,y
16 z+1/2,x+1/2,-y
17 y,z,x
18 -y,-z,-x
19 y,-z+1/2,-x+1/2
20 -y,z+1/2,x+1/2
21 -y+1/2,z,-x+1/2
22 y+1/2,-z,x+1/2
23 -y+1/2,-z+1/2,x
24 y+1/2,z+1/2,-x
25 x,z,y
26 -x,-z,-y
27 x,-z+1/2,-y+1/2
28 -x,z+1/2,y+1/2
29 -x+1/2,z,-y+1/2
30 x+1/2,-z,y+1/2
31 -x+1/2,-z+1/2,y
32 x+1/2,z+1/2,-y
33 y,x,z
34 -y,-x,-z
35 y,-x+1/2,-z+1/2
36 -y,x+1/2,z+1/2
37 -y+1/2,x,-z+1/2
38 y+1/2,-x,z+1/2
39 -y+1/2,-x+1/2,z
40 y+1/2,x+1/2,-z
41 z,y,x
42 -z,-y,-x
43 z,-y+1/2,-x+1/2
44 -z,y+1/2,x+1/2
45 -z+1/2,y,-x+1/2
46 z+1/2,-y,x+1/2
47 -z+1/2,-y+1/2,x
48 z+1/2,y+1/2,-x

loop_
_atom_site_label
_atom_site_type_symbol
_atom_site_fract_x
_atom_site_fract_y
_atom_site_fract_z
_atom_site_U_iso_or_equiv
_atom_site_symmetry_multiplicity
_atom_site_Wyckoff_symbol
_atom_site_occupancy
Cu1 Cu 0.0 0.0 0.0 0.01908 4 b 1.0
O2 O 0.25 0.25 0.25 0.01891 2 a 1.0

loop_
_atom_site_aniso_label
_atom_site_aniso_U_11
_atom_site_aniso_U_12
_atom_site_aniso_U_13
_atom_site_aniso_U_22
_atom_site_aniso_U_23
_atom_site_aniso_U_33
Cu1 0.01908 -8.6E-4 -8.6E-4 0.01908 -8.6E-4 0.01908

