data_04-013-5433
#Copyright 2021 International Centre for Diffraction Data. All rights reserved.

_audit_creation_date                  2021-12-16
_audit_creation_method                'Generated by PDF-4+ 2022 4.22.0.2'

_chemical_name_systematic             'Iron Oxide'
_chemical_name_common                 '\e-Fe2 O3'
_chemical_formula_moiety              'Fe2 O3'
_chemical_formula_sum                 'Fe2 O3'
_chemical_formula_weight              159.69

_cell_length_a                        5.085(1)
_cell_length_b                        8.774(2)
_cell_length_c                        9.468(2)
_cell_angle_alpha                     90
_cell_angle_beta                      90
_cell_angle_gamma                     90
_cell_formula_units_Z                 8
_cell_volume                          422.42
_symmetry_cell_setting                orthorhombic
_symmetry_space_group_name_H-M        Pna21
_symmetry_Int_Tables_number           33

loop_
_symmetry_equiv_pos_site_id
_symmetry_equiv_pos_as_xyz
1 x,y,z
2 -x,-y,z+1/2
3 -x+1/2,y+1/2,z+1/2
4 x+1/2,-y+1/2,z

loop_
_atom_site_label
_atom_site_type_symbol
_atom_site_fract_x
_atom_site_fract_y
_atom_site_fract_z
_atom_site_U_iso_or_equiv
_atom_site_symmetry_multiplicity
_atom_site_Wyckoff_symbol
_atom_site_occupancy
O1 O 0.978 0.331 0.4288 . 4 a 1.0
O2 O 0.512 0.4871 0.4489 . 4 a 1.0
O3 O 0.646 0.9943 0.1871 . 4 a 1.0
O4 O 0.159 0.162 0.2002 . 4 a 1.0
O5 O 0.858 0.157 0.6685 . 4 a 1.0
O6 O 0.523 0.161 0.9257 . 4 a 1.0
Fe7 Fe 0.1931 0.1514 0.582 . 4 a 1.0
Fe8 Fe 0.6867 0.0283 0.7938 . 4 a 1.0
Fe9 Fe 0.1852 0.1526 0.0 . 4 a 1.0
Fe10 Fe 0.8098 0.1592 0.3079 . 4 a 1.0

