data_04-019-1435
#Copyright 2021 International Centre for Diffraction Data. All rights reserved.

_audit_creation_date                  2021-12-16
_audit_creation_method                'Generated by PDF-4+ 2022 4.22.0.2'

_chemical_name_systematic             'Iron Oxide'
_chemical_formula_moiety              'Fe4 O5'
_chemical_formula_sum                 'Fe4 O5'
_chemical_formula_weight              303.38

_cell_length_a                        2.87366(8)
_cell_length_b                        9.6940(3)
_cell_length_c                        12.4116(4)
_cell_angle_alpha                     90
_cell_angle_beta                      90
_cell_angle_gamma                     90
_cell_formula_units_Z                 4
_cell_volume                          345.75
_symmetry_cell_setting                orthorhombic
_symmetry_space_group_name_H-M        Cmcm
_symmetry_Int_Tables_number           63

loop_
_symmetry_equiv_pos_site_id
_symmetry_equiv_pos_as_xyz
1 x,y,z
2 -x,-y,-z
3 x,-y,-z
4 -x,y,z
5 x,y,-z+1/2
6 -x,-y,z+1/2
7 x,-y,z+1/2
8 -x,y,-z+1/2
9 x+1/2,y+1/2,z
10 -x+1/2,-y+1/2,-z
11 x+1/2,-y+1/2,-z
12 -x+1/2,y+1/2,z
13 x+1/2,y+1/2,-z+1/2
14 -x+1/2,-y+1/2,z+1/2
15 x+1/2,-y+1/2,z+1/2
16 -x+1/2,y+1/2,-z+1/2

loop_
_atom_site_label
_atom_site_type_symbol
_atom_site_fract_x
_atom_site_fract_y
_atom_site_fract_z
_atom_site_U_iso_or_equiv
_atom_site_symmetry_multiplicity
_atom_site_Wyckoff_symbol
_atom_site_occupancy
Fe1 Fe 0.0 0.0 0.0 0.03 4 a 1.0
Fe2 Fe 0.0 0.2619 0.1176 0.0317 8 f 1.0
Fe3 Fe 0.0 0.5079 0.25 0.04 4 c 1.0
O4 O 0.0 0.165 0.25 0.019 4 c 1.0
O5 O 0.0 0.3577 0.5485 0.036 8 f 1.0
O6 O 0.0 0.0937 0.6448 0.026 8 f 1.0

