data_04-011-4796
#Copyright 2021 International Centre for Diffraction Data. All rights reserved.

_audit_creation_date                  2021-12-16
_audit_creation_method                'Generated by PDF-4+ 2022 4.22.0.2'

_chemical_name_systematic             'Vanadium Iron Oxide'
_chemical_formula_moiety              'V4 Fe2 O13'
_chemical_formula_sum                 'Fe2 O13 V4'
_chemical_formula_weight              523.44

_cell_length_a                        8.3125(3)
_cell_length_b                        9.4055(4)
_cell_length_c                        14.5768(6)
_cell_angle_alpha                     90
_cell_angle_beta                      102.231(2)
_cell_angle_gamma                     90
_cell_formula_units_Z                 4
_cell_volume                          1113.79
_symmetry_cell_setting                monoclinic
_symmetry_space_group_name_H-M        P21/c
_symmetry_Int_Tables_number           14

loop_
_symmetry_equiv_pos_site_id
_symmetry_equiv_pos_as_xyz
1 x,y,z
2 -x,-y,-z
3 -x,y+1/2,-z+1/2
4 x,-y+1/2,z+1/2

loop_
_atom_site_label
_atom_site_type_symbol
_atom_site_fract_x
_atom_site_fract_y
_atom_site_fract_z
_atom_site_B_iso_or_equiv
_atom_site_symmetry_multiplicity
_atom_site_Wyckoff_symbol
_atom_site_occupancy
Fe1 Fe 0.9534 0.0042 0.2723 0.9 4 e 1.0
Fe2 Fe 0.569 0.0061 0.2526 0.8 4 e 1.0
V3 V 0.5145 0.256 -0.0673 2.0 4 e 1.0
V4 V 0.1292 0.2395 -0.0747 1.8 4 e 1.0
V5 V 0.7119 0.2788 0.16 0.6 4 e 1.0
V6 V 0.2143 0.1871 0.1518 1.8 4 e 1.0
O7 O 0.1209 0.1905 0.0467 1.7 4 e 1.0
O8 O 0.3303 0.3088 -0.0336 1.7 4 e 1.0
O9 O 0.649 0.2397 0.0335 1.7 4 e 1.0
O10 O 0.7487 0.1319 0.2196 1.7 4 e 1.0
O11 O 0.7906 -0.1209 0.3125 1.7 4 e 1.0
O12 O 0.6024 0.1147 0.3884 1.7 4 e 1.0
O13 O 0.5076 -0.1049 0.1404 1.7 4 e 1.0
O14 O 0.1003 -0.1503 0.3368 1.7 4 e 1.0
O15 O 0.9025 -0.1128 0.1453 1.7 4 e 1.0
O16 O 0.4058 0.1728 0.1776 1.7 4 e 1.0
O17 O 0.0061 0.1109 0.3966 1.7 4 e 1.0
O18 O 0.3911 -0.1142 0.2978 1.7 4 e 1.0
O19 O 0.116 0.1151 0.2336 1.7 4 e 1.0

