data_V2_O5_-_00-061-0028
#Copyright 2019 International Centre for Diffraction Data. All rights reserved.

_audit_creation_date                  2019-11-12
_audit_creation_method                'Generated by PDF-4+ 2020 4.20.0.1'

_chemical_name_systematic             'Vanadium Oxide'
_chemical_name_common                 '\b-V2 O5, vanadium pentoxide'
_chemical_formula_moiety              'V2 O5'
_chemical_formula_sum                 'O5 V2'
_chemical_formula_weight              181.88

_cell_length_a                        7.1140(2)
_cell_length_b                        3.57177(10)
_cell_length_c                        6.28460(17)
_cell_angle_alpha                     90.0
_cell_angle_beta                      90.069(3)
_cell_angle_gamma                     90.0
_cell_volume                          159.69
_cell_formula_units_Z                 2.00
_symmetry_cell_setting                monoclinic
_symmetry_space_group_name_H-M        P121/m1
_symmetry_Int_Tables_number           11

loop_
_symmetry_equiv_pos_site_id
_symmetry_equiv_pos_as_xyz
1 x,y,z
2 -x,-y,-z
3 -x,y+1/2,-z
4 x,-y+1/2,z

loop_
_atom_site_label
_atom_site_type_symbol
_atom_site_fract_x
_atom_site_fract_y
_atom_site_fract_z
_atom_site_U_iso_or_equiv
_atom_site_symmetry_multiplicity
_atom_site_Wyckoff_symbol
_atom_site_occupancy
V1 V 0.0998 0.25 0.8103 0.014 . . 1.0
V2 V 0.2773 0.25 0.2557 0.015 . . 1.0
O3 O 0.8241 0.75 0.4374 0.0053 . . 1.0
O4 O 0.9693 0.25 0.1464 0.0127 . . 1.0
O5 O 0.4914 0.25 0.3248 0.0136 . . 1.0
O6 O 0.3012 0.25 0.9576 0.0084 . . 1.0
O7 O 0.1992 0.75 0.2627 0.0048 . . 1.0

