data_Mn3_O4_-_04-013-7520
#Copyright 2019 International Centre for Diffraction Data. All rights reserved.

_audit_creation_date                  2019-11-12
_audit_creation_method                'Generated by PDF-4+ 2020 4.20.0.1'

_chemical_name_systematic             'Manganese Oxide'
_chemical_formula_moiety              'Mn3 O4'
_chemical_formula_sum                 'Mn3 O4'
_chemical_formula_weight              228.81

_cell_length_a                        2.8960(23)
_cell_length_b                        9.5081(56)
_cell_length_c                        9.2587(84)
_cell_angle_alpha                     90
_cell_angle_beta                      90
_cell_angle_gamma                     90
_cell_volume                          254.94
_cell_formula_units_Z                 4.00
_symmetry_cell_setting                orthorhombic
_symmetry_space_group_name_H-M        Pbcm
_symmetry_Int_Tables_number           57

loop_
_symmetry_equiv_pos_site_id
_symmetry_equiv_pos_as_xyz
1 x,y,z
2 -x,-y,-z
3 -x,-y,z+1/2
4 x,y,-z+1/2
5 x,-y+1/2,-z
6 -x,y+1/2,z
7 -x,y+1/2,-z+1/2
8 x,-y+1/2,z+1/2

loop_
_atom_site_label
_atom_site_type_symbol
_atom_site_fract_x
_atom_site_fract_y
_atom_site_fract_z
_atom_site_B_iso_or_equiv
_atom_site_symmetry_multiplicity
_atom_site_Wyckoff_symbol
_atom_site_occupancy
Mn1 Mn 0.708 0.371 0.25 0.5 4 d 1.0
Mn2 Mn 0.228 0.132 0.084 0.5 8 e 1.0
O3 O 0.838 0.25 0.0 0.5 4 c 1.0
O4 O 0.248 0.173 0.25 0.5 4 d 1.0
O5 O 0.354 0.451 0.057 0.5 8 e 1.0

