data_(_O3_)_-_04-018-5681
#Copyright 2019 International Centre for Diffraction Data. All rights reserved.

_audit_creation_date                  2019-11-12
_audit_creation_method                'Generated by PDF-4+ 2020 4.20.0.1'

_chemical_name_systematic             Oxygen
_chemical_name_common                 ozone
_chemical_formula_moiety              '( O3 )'
_chemical_formula_sum                 O3
_chemical_formula_weight              48.00

_cell_length_a                        7.7888(2)
_cell_length_b                        6.6973(2)
_cell_length_c                        6.8413(2)
_cell_angle_alpha                     90
_cell_angle_beta                      90
_cell_angle_gamma                     90
_cell_volume                          356.87
_cell_formula_units_Z                 8.00
_symmetry_cell_setting                orthorhombic
_symmetry_space_group_name_H-M        Pbca
_symmetry_Int_Tables_number           61

loop_
_symmetry_equiv_pos_site_id
_symmetry_equiv_pos_as_xyz
1 x,y,z
2 -x,-y,-z
3 x+1/2,-y+1/2,-z
4 -x+1/2,y+1/2,z
5 -x,y+1/2,-z+1/2
6 x,-y+1/2,z+1/2
7 -x+1/2,-y,z+1/2
8 x+1/2,y,-z+1/2

loop_
_atom_site_label
_atom_site_type_symbol
_atom_site_fract_x
_atom_site_fract_y
_atom_site_fract_z
_atom_site_U_iso_or_equiv
_atom_site_symmetry_multiplicity
_atom_site_Wyckoff_symbol
_atom_site_occupancy
O1 O 0.205 0.0585 0.0648 0.0191 8 c 1.0
O2 O 0.124 0.1537 0.1935 0.0152 8 c 1.0
O3 O 6.0E-4 0.2611 0.1394 0.0155 8 c 1.0

