data_V4_O7_-_04-007-0435
#Copyright 2019 International Centre for Diffraction Data. All rights reserved.

_audit_creation_date                  2019-11-12
_audit_creation_method                'Generated by PDF-4+ 2020 4.20.0.1'

_chemical_name_systematic             'Vanadium Oxide'
_chemical_formula_moiety              'V4 O7'
_chemical_formula_sum                 'O7 V4'
_chemical_formula_weight              315.76

_cell_length_a                        5.509(1)
_cell_length_b                        7.008(2)
_cell_length_c                        12.256(2)
_cell_angle_alpha                     95.10(2)
_cell_angle_beta                      95.17(1)
_cell_angle_gamma                     109.25(2)
_cell_volume                          441.34
_cell_formula_units_Z                 2.00
_symmetry_cell_setting                triclinic
_symmetry_space_group_name_H-M        A-1
_symmetry_Int_Tables_number           2

loop_
_symmetry_equiv_pos_site_id
_symmetry_equiv_pos_as_xyz
1 x,y,z
2 -x,-y,-z
3 x,y+1/2,z+1/2
4 -x,-y+1/2,-z+1/2

loop_
_atom_site_label
_atom_site_type_symbol
_atom_site_fract_x
_atom_site_fract_y
_atom_site_fract_z
_atom_site_B_iso_or_equiv
_atom_site_symmetry_multiplicity
_atom_site_Wyckoff_symbol
_atom_site_occupancy
V1 V 0.2146 0.1468 0.0629 0.328 4 i 1.0
V2 V 0.777 0.345 0.9329 0.30877 4 i 1.0
V3 V 0.6822 0.4403 0.1996 0.29542 4 i 1.0
V4 V 0.6874 0.9419 0.2018 0.30396 4 i 1.0
O5 O 0.1005 0.8576 0.015 0.42825 4 i 1.0
O6 O 0.5864 0.7958 0.0545 0.4755 4 i 1.0
O7 O 0.8549 0.4932 0.0836 0.4078 4 i 1.0
O8 O 0.3271 0.4367 0.1373 0.32262 4 i 1.0
O9 O 0.5257 0.1433 0.1642 0.29445 4 i 1.0
O10 O 0.0309 0.0641 0.1982 0.4036 4 i 1.0
O11 O 0.2955 0.7922 0.2243 0.32704 4 i 1.0

loop_
_atom_site_aniso_label
_atom_site_aniso_B_11
_atom_site_aniso_B_12
_atom_site_aniso_B_13
_atom_site_aniso_B_22
_atom_site_aniso_B_23
_atom_site_aniso_B_33
V1 0.489693 0.162524 0.0249866 0.430769 0.0317889 0.0660022
V2 0.479048 0.189611 0.0624664 0.396307 0.0508623 0.0904868
V3 0.383238 0.121893 0.0999463 0.430769 0.0540412 0.0777122
V4 0.468402 0.216698 0.117437 0.430769 0.111261 0.0915514
O5 0.649376 0.29796 0.0 0.585846 0.158945 0.127746
O6 0.564212 0.108349 0.0749597 0.706461 0.127156 0.0958096
O7 0.564212 0.135436 0.174906 0.568615 0.158945 0.0958096
O8 0.596148 0.203155 0.0249866 0.310154 0.0317889 0.0958096
O9 0.436466 0.135436 0.0499731 0.361846 0.127156 0.106455
O10 0.532275 0.189611 0.0249866 0.568615 0.0317889 0.106455
O11 0.52163 0.162524 0.0249866 0.379077 0.0317889 0.0851641

