data_Mn4_Nb2_O9_-_01-074-1366
#Copyright 2019 International Centre for Diffraction Data. All rights reserved.

_audit_creation_date                  2019-11-12
_audit_creation_method                'Generated by PDF-4+ 2020 4.20.0.1'

_chemical_name_systematic             'Manganese Niobium Oxide'
_chemical_name_common                 'tetramanganese diniobium oxide'
_chemical_formula_moiety              'Mn4 Nb2 O9'
_chemical_formula_sum                 'Mn4 Nb2 O9'
_chemical_formula_weight              549.56

_cell_length_a                        5.177
_cell_length_b                        5.177
_cell_length_c                        14.168
_cell_angle_alpha                     90
_cell_angle_beta                      90
_cell_angle_gamma                     120
_cell_volume                          328.85
_cell_formula_units_Z                 2.00
_symmetry_cell_setting                hexagonal
_symmetry_space_group_name_H-M        P-3c1
_symmetry_Int_Tables_number           165

loop_
_symmetry_equiv_pos_site_id
_symmetry_equiv_pos_as_xyz
1 x,y,z
2 -x,-y,-z
3 -y,x-y,z
4 y,-x+y,-z
5 -x+y,-x,z
6 x-y,x,-z
7 -y,-x,z+1/2
8 y,x,-z+1/2
9 x,x-y,z+1/2
10 -x,-x+y,-z+1/2
11 -x+y,y,z+1/2
12 x-y,-y,-z+1/2

loop_
_atom_site_label
_atom_site_type_symbol
_atom_site_fract_x
_atom_site_fract_y
_atom_site_fract_z
_atom_site_U_iso_or_equiv
_atom_site_symmetry_multiplicity
_atom_site_Wyckoff_symbol
_atom_site_occupancy
Nb1 Nb 0.0 0.0 0.3575 . 4 c 1.0
Mn2 Mn 0.3333 0.6667 0.0181 . 4 d 1.0
Mn3 Mn 0.3333 0.6667 0.297 . 4 d 1.0
O4 O 0.3 0.0 0.25 . 6 f 1.0
O5 O 0.334 0.295 0.084 . 12 g 1.0

