data_Nb12_O29_-_04-014-6588
#Copyright 2019 International Centre for Diffraction Data. All rights reserved.

_audit_creation_date                  2019-11-12
_audit_creation_method                'Generated by PDF-4+ 2020 4.20.0.1'

_chemical_name_systematic             'Niobium Oxide'
_chemical_formula_moiety              'Nb12 O29'
_chemical_formula_sum                 'Nb12 O29'
_chemical_formula_weight              1578.85

_cell_length_a                        15.695(1)
_cell_length_b                        3.8310(3)
_cell_length_c                        20.723(2)
_cell_angle_alpha                     90.000(5)
_cell_angle_beta                      113.103(5)
_cell_angle_gamma                     90.000(5)
_cell_volume                          1146.09
_cell_formula_units_Z                 2.00
_symmetry_cell_setting                monoclinic
_symmetry_space_group_name_H-M        A2/m
_symmetry_Int_Tables_number           12

loop_
_symmetry_equiv_pos_site_id
_symmetry_equiv_pos_as_xyz
1 x,y,z
2 -x,-y,-z
3 x,-y,z
4 -x,y,-z
5 x,y+1/2,z+1/2
6 -x,-y+1/2,-z+1/2
7 x,-y+1/2,z+1/2
8 -x,y+1/2,-z+1/2

loop_
_atom_site_label
_atom_site_type_symbol
_atom_site_fract_x
_atom_site_fract_y
_atom_site_fract_z
_atom_site_U_iso_or_equiv
_atom_site_symmetry_multiplicity
_atom_site_Wyckoff_symbol
_atom_site_occupancy
Nb1 Nb 0.097 0.0 0.064 0.0128 4 i 1.0
Nb2 Nb 0.1 0.0 0.696 0.0128 4 i 1.0
Nb3 Nb 0.103 0.0 0.884 0.0128 4 i 1.0
Nb4 Nb 0.376 0.0 0.148 0.0128 4 i 1.0
Nb5 Nb 0.371 0.0 0.7735 0.0128 4 i 1.0
Nb6 Nb 0.357 0.0 0.957 0.0128 4 i 1.0
O7 O 0.5 0.0 0.0 0.0046 2 d 1.0
O8 O 0.075 0.0 0.165 0.0046 4 i 1.0
O9 O 0.071 0.0 0.371 0.0046 4 i 1.0
O10 O 0.064 0.0 0.574 0.0046 4 i 1.0
O11 O 0.069 0.0 0.781 0.0046 4 i 1.0
O12 O 0.073 0.0 0.973 0.0046 4 i 1.0
O13 O 0.213 0.0 0.101 0.0046 4 i 1.0
O14 O 0.215 0.0 0.731 0.0046 4 i 1.0
O15 O 0.237 0.0 0.925 0.0046 4 i 1.0
O16 O 0.359 0.0 0.052 0.0046 4 i 1.0
O17 O 0.359 0.0 0.242 0.0046 4 i 1.0
O18 O 0.355 0.0 0.46 0.0046 4 i 1.0
O19 O 0.363 0.0 0.664 0.0046 4 i 1.0
O20 O 0.361 0.0 0.866 0.0046 4 i 1.0
O21 O 0.506 0.0 0.191 0.0046 4 i 1.0

