data_04-007-1061
#Copyright 2021 International Centre for Diffraction Data. All rights reserved.

_audit_creation_date                  2021-12-16
_audit_creation_method                'Generated by PDF-4+ 2022 4.22.0.2'

_chemical_name_systematic             'Iron Oxide'
_chemical_name_common                 'iron diiron(III) oxide, magnetite orthorhombic, syn'
_chemical_formula_moiety              'Fe3 O4'
_chemical_formula_sum                 'Fe3 O4'
_chemical_formula_weight              231.53

_cell_length_a                        5.934
_cell_length_b                        5.926
_cell_length_c                        16.752
_cell_angle_alpha                     90
_cell_angle_beta                      90
_cell_angle_gamma                     90
_cell_formula_units_Z                 8
_cell_volume                          589.08
_symmetry_cell_setting                orthorhombic
_symmetry_space_group_name_H-M        Pmc21
_symmetry_Int_Tables_number           26

loop_
_symmetry_equiv_pos_site_id
_symmetry_equiv_pos_as_xyz
1 x,y,z
2 -x,y,z
3 -x,-y,z+1/2
4 x,-y,z+1/2

loop_
_atom_site_label
_atom_site_type_symbol
_atom_site_fract_x
_atom_site_fract_y
_atom_site_fract_z
_atom_site_U_iso_or_equiv
_atom_site_symmetry_multiplicity
_atom_site_Wyckoff_symbol
_atom_site_occupancy
Fe1 Fe 0.0 0.0026 0.437 . 2 a 1.0
Fe2 Fe 0.5 0.0065 0.064 . 2 b 1.0
Fe3 Fe 0.5 0.5087 0.1891 . 2 b 1.0
Fe4 Fe 0.0 0.5044 0.3117 . 2 a 1.0
Fe5 Fe 0.2539 0.5027 -2.0E-4 . 4 c 1.0
Fe6 Fe 0.0 0.2597 0.1213 . 2 a 1.0
Fe7 Fe 0.0 0.7603 0.1263 . 2 a 1.0
Fe8 Fe 0.2433 0.0098 0.2476 . 4 c 1.0
Fe9 Fe 0.5 0.268 0.3787 . 2 b 1.0
Fe10 Fe 0.5 0.7504 0.3753 . 2 b 1.0
O11 O 0.0 0.2484 0.0012 . 2 a 1.0
O12 O 0.5 0.2686 -0.0032 . 2 b 1.0
O13 O 0.0 0.7439 0.002 . 2 a 1.0
O14 O 0.5 0.744 -6.0E-4 . 2 b 1.0
O15 O 0.2407 0.0085 0.1291 . 4 c 1.0
O16 O 0.2449 0.5067 0.1239 . 4 c 1.0
O17 O 0.0 0.2356 0.2464 . 2 a 1.0
O18 O 0.5 0.2563 0.2555 . 2 b 1.0
O19 O 0.0 0.7761 0.2492 . 2 a 1.0
O20 O 0.5 0.7638 0.2549 . 2 b 1.0
O21 O 0.264 0.0096 0.3706 . 4 c 1.0
O22 O 0.2575 0.5042 0.3755 . 4 c 1.0

