data_01-071-0161
#Copyright 2021 International Centre for Diffraction Data. All rights reserved.

_audit_creation_date                  2021-12-16
_audit_creation_method                'Generated by PDF-4+ 2022 4.22.0.2'

_chemical_name_systematic             'Iron Oxide'
_chemical_formula_moiety              'Fe0.856 O'
_chemical_formula_sum                 'Fe0.856 O'
_chemical_formula_weight              63.80

_cell_length_a                        21.46999
_cell_length_b                        21.46999
_cell_length_c                        21.46999
_cell_angle_alpha                     90
_cell_angle_beta                      90
_cell_angle_gamma                     90
_cell_formula_units_Z                 500
_cell_volume                          9896.82
_symmetry_cell_setting                orthorhombic
_symmetry_space_group_name_H-M        Abm2
_symmetry_Int_Tables_number           39

loop_
_symmetry_equiv_pos_site_id
_symmetry_equiv_pos_as_xyz
1 x,y,z
2 -x,-y,z
3 -x,y+1/2,z
4 x,-y+1/2,z
5 x,y+1/2,z+1/2
6 -x,-y+1/2,z+1/2
7 -x,y,z+1/2
8 x,-y,z+1/2

loop_
_atom_site_label
_atom_site_type_symbol
_atom_site_fract_x
_atom_site_fract_y
_atom_site_fract_z
_atom_site_U_iso_or_equiv
_atom_site_symmetry_multiplicity
_atom_site_Wyckoff_symbol
_atom_site_occupancy
Fe1 Fe 0.0 0.0 0.05 . 4 a 1.0
Fe2 Fe 0.5 0.0 0.15 . 4 b 1.0
Fe3 Fe 0.1 0.1 -0.05 . 8 d 1.0
Fe4 Fe 0.6 0.1 0.05 . 8 d 1.0
Fe5 Fe 0.05 0.25 0.0 . 4 c 1.0
Fe6 Fe 0.247 0.25 0.0 . 4 c 1.0
Fe7 Fe 0.453 0.25 0.0 . 4 c 1.0
Fe8 Fe 0.645 0.25 0.005 . 4 c 1.0
Fe9 Fe 0.85 0.25 0.0 . 4 c 1.0
Fe10 Fe -0.05 0.25 0.1 . 4 c 1.0
Fe11 Fe 0.15 0.25 0.097 . 4 c 1.0
Fe12 Fe 0.35 0.25 0.1 . 4 c 1.0
Fe13 Fe 0.55 0.25 0.1 . 4 c 1.0
Fe14 Fe 0.747 0.25 0.1 . 4 c 1.0
Fe15 Fe 0.05 0.25 0.2 . 4 c 1.0
Fe16 Fe 0.25 0.25 0.2 . 4 c 1.0
Fe17 Fe 0.45 0.25 0.2 . 4 c 1.0
Fe18 Fe 0.65 0.25 0.197 . 4 c 1.0
Fe19 Fe 0.85 0.25 0.2 . 4 c 1.0
Fe20 Fe -0.05 0.25 0.3 . 4 c 1.0
Fe21 Fe 0.15 0.25 0.3 . 4 c 1.0
Fe22 Fe 0.35 0.25 0.3 . 4 c 1.0
Fe23 Fe 0.55 0.25 0.3 . 4 c 1.0
Fe24 Fe 0.247 0.25 -0.197 . 4 c 1.0
Fe25 Fe -0.047 0.25 -0.1 . 4 c 1.0
Fe26 Fe 0.25 0.25 0.4 . 4 c 1.0
Fe27 Fe 0.55 0.25 -0.097 . 4 c 1.0
Fe28 Fe 0.65 0.25 0.4 . 4 c 1.0
Fe29 Fe 0.145 0.25 -0.095 . 4 c 1.0
Fe30 Fe 0.747 -0.047 0.0 . 8 d 1.0
Fe31 Fe 0.455 0.045 0.005 . 8 d 1.0
Fe32 Fe 0.145 -0.045 0.0 . 8 d 1.0
Fe33 Fe 0.35 0.15 0.0 . 8 d 1.0
Fe34 Fe 0.745 0.145 0.005 . 8 d 1.0
Fe35 Fe -0.045 0.145 0.0 . 8 d 1.0
Fe36 Fe 0.145 0.055 0.095 . 8 d 1.0
Fe37 Fe 0.645 -0.045 0.1 . 8 d 1.0
Fe38 Fe 0.747 0.05 0.1 . 8 d 1.0
Fe39 Fe 0.055 0.145 0.095 . 8 d 1.0
Fe40 Fe 0.247 0.15 0.097 . 8 d 1.0
Fe41 Fe 0.455 0.145 0.1 . 8 d 1.0
Fe42 Fe 0.147 -0.147 0.1 . 8 d 1.0
Fe43 Fe 0.045 0.045 0.195 . 8 d 1.0
Fe44 Fe 0.25 0.05 0.2 . 8 d 1.0
Fe45 Fe 0.645 0.055 0.195 . 8 d 1.0
Fe46 Fe 0.148 -0.05 0.198 . 8 d 1.0
Fe47 Fe 0.355 0.145 0.405 . 8 d 1.0
Fe48 Fe 0.647 -0.147 0.2 . 8 d 1.0
Fe49 Fe 0.555 0.145 0.195 . 8 d 1.0
Fe50 Fe 0.747 0.15 0.197 . 8 d 1.0
Fe51 Fe -0.05 0.147 0.198 . 8 d 1.0
Fe52 Fe 0.055 0.055 -0.195 . 8 d 1.0
Fe53 Fe 0.15 0.05 0.3 . 8 d 1.0
Fe54 Fe 0.648 -0.05 0.298 . 8 d 1.0
Fe55 Fe 0.545 0.045 0.295 . 8 d 1.0
Fe56 Fe 0.247 0.05 -0.197 . 8 d 1.0
Fe57 Fe 0.25 0.15 0.3 . 8 d 1.0
Fe58 Fe 0.45 0.147 0.298 . 8 d 1.0
Fe59 Fe 0.648 0.148 0.298 . 8 d 1.0
Fe60 Fe 0.145 0.145 0.195 . 8 d 1.0
Fe61 Fe -0.045 0.045 -0.095 . 8 d 1.0
Fe62 Fe 0.747 0.05 -0.097 . 8 d 1.0
Fe63 Fe 0.555 0.055 -0.095 . 8 d 1.0
Fe64 Fe 0.65 0.05 0.4 . 8 d 1.0
Fe65 Fe 0.15 0.15 0.4 . 8 d 1.0
Fe66 Fe 0.145 0.145 0.805 . 8 d 1.0
Fe67 Fe 0.245 0.145 -0.095 . 8 d 1.0
O68 O 0.05 0.25 -0.1 . 4 c 1.0
O69 O 0.25 0.25 -0.1 . 4 c 1.0
O70 O 0.45 0.25 -0.1 . 4 c 1.0
O71 O 0.65 0.25 -0.1 . 4 c 1.0
O72 O 0.85 0.25 -0.1 . 4 c 1.0
O73 O -0.05 0.25 0.0 . 4 c 1.0
O74 O 0.15 0.25 0.0 . 4 c 1.0
O75 O 0.35 0.25 0.0 . 4 c 1.0
O76 O 0.55 0.25 0.0 . 4 c 1.0
O77 O 0.75 0.25 0.0 . 4 c 1.0
O78 O 0.05 0.25 0.1 . 4 c 1.0
O79 O 0.25 0.25 0.1 . 4 c 1.0
O80 O 0.45 0.25 0.1 . 4 c 1.0
O81 O 0.65 0.25 0.1 . 4 c 1.0
O82 O 0.85 0.25 0.1 . 4 c 1.0
O83 O -0.05 0.25 0.2 . 4 c 1.0
O84 O 0.15 0.25 0.2 . 4 c 1.0
O85 O 0.35 0.25 0.2 . 4 c 1.0
O86 O 0.55 0.25 0.2 . 4 c 1.0
O87 O 0.75 0.25 0.2 . 4 c 1.0
O88 O 0.05 0.25 0.3 . 4 c 1.0
O89 O 0.25 0.25 0.3 . 4 c 1.0
O90 O 0.45 0.25 0.3 . 4 c 1.0
O91 O 0.65 0.25 0.3 . 4 c 1.0
O92 O 0.85 0.25 0.3 . 4 c 1.0
O93 O 0.047 0.047 -0.103 . 8 d 1.0
O94 O 0.253 0.05 -0.1 . 8 d 1.0
O95 O 0.45 0.05 -0.1 . 8 d 1.0
O96 O 0.65 0.05 -0.103 . 8 d 1.0
O97 O -0.053 0.15 -0.1 . 8 d 1.0
O98 O 0.153 0.153 -0.103 . 8 d 1.0
O99 O 0.35 0.15 -0.1 . 8 d 1.0
O100 O 0.55 0.15 -0.103 . 8 d 1.0
O101 O 0.75 0.15 -0.1 . 8 d 1.0
O102 O 0.15 -0.053 -0.1 . 8 d 1.0
O103 O 0.054 -0.054 -0.004 . 8 d 1.0
O104 O 0.154 0.046 0.004 . 8 d 1.0
O105 O 0.447 0.15 0.0 . 8 d 1.0
O106 O 0.547 0.047 -0.003 . 8 d 1.0
O107 O 0.753 0.05 0.0 . 8 d 1.0
O108 O 0.046 0.154 0.004 . 8 d 1.0
O109 O 0.253 0.15 0.0 . 8 d 1.0
O110 O 0.65 -0.053 0.0 . 8 d 1.0
O111 O 0.653 0.153 -0.003 . 8 d 1.0
O112 O 0.85 0.15 0.0 . 8 d 1.0
O113 O 0.054 0.054 0.104 . 8 d 1.0
O114 O 0.25 0.05 0.1 . 8 d 1.0
O115 O 0.554 -0.054 0.096 . 8 d 1.0
O116 O 0.654 0.046 0.104 . 8 d 1.0
O117 O -0.05 0.153 0.103 . 8 d 1.0
O118 O 0.153 0.153 0.103 . 8 d 1.0
O119 O 0.35 0.15 0.1 . 8 d 1.0
O120 O 0.546 0.154 0.104 . 8 d 1.0
O121 O 0.753 0.15 0.1 . 8 d 1.0
O122 O 0.153 -0.05 0.103 . 8 d 1.0
O123 O -0.05 0.05 0.203 . 8 d 1.0
O124 O 0.046 0.153 0.202 . 8 d 1.0
O125 O 0.45 0.153 0.203 . 8 d 1.0
O126 O 0.554 0.054 0.204 . 8 d 1.0
O127 O 0.75 0.05 0.2 . 8 d 1.0
O128 O 0.153 0.046 0.202 . 8 d 1.0
O129 O 0.25 0.15 0.2 . 8 d 1.0
O130 O 0.653 -0.05 0.203 . 8 d 1.0
O131 O 0.653 0.153 0.203 . 8 d 1.0
O132 O 0.85 0.15 0.2 . 8 d 1.0
O133 O 0.05 0.05 0.3 . 8 d 1.0
O134 O 0.25 0.05 0.3 . 8 d 1.0
O135 O 0.45 0.05 0.303 . 8 d 1.0
O136 O 0.546 0.153 0.302 . 8 d 1.0
O137 O 0.15 0.05 -0.203 . 8 d 1.0
O138 O 0.15 0.15 0.3 . 8 d 1.0
O139 O 0.35 0.15 0.3 . 8 d 1.0
O140 O 0.653 0.046 0.302 . 8 d 1.0
O141 O 0.75 0.15 0.3 . 8 d 1.0
O142 O 0.05 0.15 -0.203 . 8 d 1.0

