data_04-016-0613
#Copyright 2021 International Centre for Diffraction Data. All rights reserved.

_audit_creation_date                  2021-12-16
_audit_creation_method                'Generated by PDF-4+ 2022 4.22.0.2'

_chemical_name_systematic             'Iron Oxide'
_chemical_name_common                 magnetite
_chemical_formula_moiety              'Fe3 O4'
_chemical_formula_sum                 'Fe3 O4'
_chemical_formula_weight              231.53

_cell_length_a                        5.94441(2)
_cell_length_b                        5.92472(2)
_cell_length_c                        8.38754(3)
_cell_angle_alpha                     90
_cell_angle_beta                      90.2365(2)
_cell_angle_gamma                     90
_cell_formula_units_Z                 4
_cell_volume                          295.40
_symmetry_cell_setting                monoclinic
_symmetry_space_group_name_H-M        P2/m
_symmetry_Int_Tables_number           10

loop_
_symmetry_equiv_pos_site_id
_symmetry_equiv_pos_as_xyz
1 x,y,z
2 -x,-y,-z
3 x,-y,z
4 -x,y,-z

loop_
_atom_site_label
_atom_site_type_symbol
_atom_site_fract_x
_atom_site_fract_y
_atom_site_fract_z
_atom_site_U_iso_or_equiv
_atom_site_symmetry_multiplicity
_atom_site_Wyckoff_symbol
_atom_site_occupancy
Fe1 Fe 0.25 0.0 0.375 . 2 m 1.0
Fe2 Fe 0.75 0.5 0.875 . 2 n 1.0
Fe3 Fe 0.0 0.0 0.0 . 1 a 0.5
Fe4 Fe 0.0 0.0 0.0 . 1 a 0.5
Fe5 Fe 0.5 0.5 0.5 . 1 h 0.5
Fe6 Fe 0.5 0.5 0.5 . 1 h 0.5
Fe7 Fe 0.5 0.0 0.0 . 1 d 0.5
Fe8 Fe 0.5 0.0 0.0 . 1 d 0.5
Fe9 Fe 0.0 0.5 0.5 . 1 f 0.5
Fe10 Fe 0.0 0.5 0.5 . 1 f 0.5
Fe11 Fe 0.25 0.25 0.75 . 4 o 0.5
Fe12 Fe 0.25 0.25 0.75 . 4 o 0.5
O13 O -0.01042 0.0 0.24479 . 2 m 1.0
O14 O 0.48958 0.5 0.74479 . 2 n 1.0
O15 O 0.51042 0.0 0.24479 . 2 m 1.0
O16 O 0.01042 0.5 0.74479 . 2 n 1.0
O17 O 0.25 0.23958 -0.00521 . 4 o 1.0
O18 O 0.75 0.73958 0.49479 . 4 o 1.0

