data_04-007-0357
#Copyright 2021 International Centre for Diffraction Data. All rights reserved.

_audit_creation_date                  2021-12-16
_audit_creation_method                'Generated by PDF-4+ 2022 4.22.0.2'

_chemical_name_systematic             'Vanadium Oxide'
_chemical_formula_moiety              'V3 O5'
_chemical_formula_sum                 'O5 V3'
_chemical_formula_weight              232.82

_cell_length_a                        10.004
_cell_length_b                        5.04
_cell_length_c                        9.854
_cell_angle_alpha                     90
_cell_angle_beta                      137.9
_cell_angle_gamma                     90
_cell_formula_units_Z                 4
_cell_volume                          333.09
_symmetry_cell_setting                monoclinic
_symmetry_space_group_name_H-M        P21/n
_symmetry_Int_Tables_number           14

loop_
_symmetry_equiv_pos_site_id
_symmetry_equiv_pos_as_xyz
1 x,y,z
2 -x,-y,-z
3 x+1/2,-y+1/2,z+1/2
4 -x+1/2,y+1/2,-z+1/2

loop_
_atom_site_label
_atom_site_type_symbol
_atom_site_fract_x
_atom_site_fract_y
_atom_site_fract_z
_atom_site_B_iso_or_equiv
_atom_site_symmetry_multiplicity
_atom_site_Wyckoff_symbol
_atom_site_occupancy
V1 V 0.24832 0.25201 0.50088 0.35 4 e 1.0
O2 O 0.2138 0.5929 0.1611 1.13 4 e 1.0
O3 O 0.721 0.0962 0.1608 0.3 4 e 1.0
O4 O 0.114 0.9071 0.4398 0.56 4 e 1.0
O5 O 0.61 0.4053 0.4417 0.66 4 e 1.0
O6 O 0.0024 0.444 0.2509 0.77 4 e 1.0
V7 V 0.84063 0.25592 0.72112 0.33 4 e 1.0
V8 V 0.6596 0.24614 0.27887 0.32 4 e 1.0

