data_00-033-1440
#Copyright 2021 International Centre for Diffraction Data. All rights reserved.

_audit_creation_date                  2021-12-16
_audit_creation_method                'Generated by PDF-4+ 2022 4.22.0.2'

_chemical_name_systematic             'Vanadium Oxide'
_chemical_formula_moiety              'V O2'
_chemical_formula_sum                 'O2 V'
_chemical_formula_weight              82.94

_cell_length_a                        4.506
_cell_length_b                        2.899
_cell_length_c                        4.617
_cell_angle_alpha                     90
_cell_angle_beta                      91.79
_cell_angle_gamma                     90
_cell_formula_units_Z                 2
_cell_volume                          60.28
_symmetry_cell_setting                monoclinic
_symmetry_space_group_name_H-M        P2/m
_symmetry_Int_Tables_number           10

loop_
_symmetry_equiv_pos_site_id
_symmetry_equiv_pos_as_xyz
1 x,y,z
2 -x,-y,-z
3 x,-y,z
4 -x,y,-z

loop_
_atom_site_label
_atom_site_type_symbol
_atom_site_fract_x
_atom_site_fract_y
_atom_site_fract_z
_atom_site_U_iso_or_equiv
_atom_site_symmetry_multiplicity
_atom_site_Wyckoff_symbol
_atom_site_occupancy
V1 V 0.0 0.0 0.0 . 1 a 1.0
V2 V 0.5 0.5 0.5 . 1 h 1.0
O3 O 0.761 0.5 0.206 . 2 n 1.0
O4 O 0.726 0.0 0.704 . 2 m 1.0

