data_Nb2_Mn4_O9_-_04-010-0603
#Copyright 2019 International Centre for Diffraction Data. All rights reserved.

_audit_creation_date                  2019-11-12
_audit_creation_method                'Generated by PDF-4+ 2020 4.20.0.1'

_chemical_name_systematic             'Niobium Manganese Oxide'
_chemical_name_common                 'tetramanganese tri-\m-oxo-hexaoxodiniobate'
_chemical_formula_moiety              'Nb2 Mn4 O9'
_chemical_formula_sum                 'Mn4 Nb2 O9'
_chemical_formula_weight              549.56

_cell_length_a                        5.3293(2)
_cell_length_b                        5.3293(2)
_cell_length_c                        14.3154(21)
_cell_angle_alpha                     90
_cell_angle_beta                      90
_cell_angle_gamma                     120
_cell_volume                          352.11
_cell_formula_units_Z                 2.00
_symmetry_cell_setting                hexagonal
_symmetry_space_group_name_H-M        P-3c1
_symmetry_Int_Tables_number           165

loop_
_symmetry_equiv_pos_site_id
_symmetry_equiv_pos_as_xyz
1 x,y,z
2 -x,-y,-z
3 -y,x-y,z
4 y,-x+y,-z
5 -x+y,-x,z
6 x-y,x,-z
7 -y,-x,z+1/2
8 y,x,-z+1/2
9 x,x-y,z+1/2
10 -x,-x+y,-z+1/2
11 -x+y,y,z+1/2
12 x-y,-y,-z+1/2

loop_
_atom_site_label
_atom_site_type_symbol
_atom_site_fract_x
_atom_site_fract_y
_atom_site_fract_z
_atom_site_B_iso_or_equiv
_atom_site_symmetry_multiplicity
_atom_site_Wyckoff_symbol
_atom_site_occupancy
Mn1 Mn 0.33333 0.66666 0.019 0.66 4 d 1.0
O2 O 0.276 0.0 0.25 0.34 6 f 1.0
O3 O 0.336 0.308 0.086 0.49 12 g 1.0
Mn4 Mn 0.33333 0.66666 0.3034 0.58 4 d 1.0
Nb5 Nb 0.0 0.0 0.3574 0.28 4 c 1.0

