data_Nb3_Mn_O6_-_04-012-6976
#Copyright 2019 International Centre for Diffraction Data. All rights reserved.

_audit_creation_date                  2019-11-12
_audit_creation_method                'Generated by PDF-4+ 2020 4.20.0.1'

_chemical_name_systematic             'Niobium Manganese Oxide'
_chemical_formula_moiety              'Nb3 Mn O6'
_chemical_formula_sum                 'Mn Nb3 O6'
_chemical_formula_weight              429.65

_cell_length_a                        7.1057(5)
_cell_length_b                        10.1420(6)
_cell_length_c                        6.5341(5)
_cell_angle_alpha                     90
_cell_angle_beta                      90
_cell_angle_gamma                     90
_cell_volume                          470.89
_cell_formula_units_Z                 4.00
_symmetry_cell_setting                orthorhombic
_symmetry_space_group_name_H-M        Immm
_symmetry_Int_Tables_number           71

loop_
_symmetry_equiv_pos_site_id
_symmetry_equiv_pos_as_xyz
1 x,y,z
2 -x,-y,-z
3 x,-y,-z
4 -x,y,z
5 -x,y,-z
6 x,-y,z
7 -x,-y,z
8 x,y,-z
9 x+1/2,y+1/2,z+1/2
10 -x+1/2,-y+1/2,-z+1/2
11 x+1/2,-y+1/2,-z+1/2
12 -x+1/2,y+1/2,z+1/2
13 -x+1/2,y+1/2,-z+1/2
14 x+1/2,-y+1/2,z+1/2
15 -x+1/2,-y+1/2,z+1/2
16 x+1/2,y+1/2,-z+1/2

loop_
_atom_site_label
_atom_site_type_symbol
_atom_site_fract_x
_atom_site_fract_y
_atom_site_fract_z
_atom_site_U_iso_or_equiv
_atom_site_symmetry_multiplicity
_atom_site_Wyckoff_symbol
_atom_site_occupancy
Mn1 Mn 0.5 0.5 0.2452 0.01357 4 i 1.0
Nb2 Nb 0.0 0.5 0.2998 0.00173 4 j 1.0
Nb3 Nb 0.22391 0.27614 0.5 0.00357 8 n 1.0
O4 O 0.5 0.6463 0.5 0.0068 4 g 1.0
O5 O 0.5 0.6521 0.0 0.00767 4 h 1.0
O6 O 0.8057 0.3658 0.2232 0.00633 16 o 1.0

loop_
_atom_site_aniso_label
_atom_site_aniso_U_11
_atom_site_aniso_U_12
_atom_site_aniso_U_13
_atom_site_aniso_U_22
_atom_site_aniso_U_23
_atom_site_aniso_U_33
Mn1 0.0251 0.0 0.0 0.0093 0.0 0.0063
Nb2 0.0014 0.0 0.0 0.0025 0.0 0.0013
Nb3 0.0038 6.0E-4 0.0 0.0047 0.0 0.0022
O4 0.005 0.0 0.0 0.008 0.0 0.0074
O5 0.006 0.0 0.0 0.008 0.0 0.009
O6 0.0069 -0.0038 -6.0E-4 0.0081 8.0E-4 0.004

