data_V4_O7_-_04-005-4525
#Copyright 2019 International Centre for Diffraction Data. All rights reserved.

_audit_creation_date                  2019-11-12
_audit_creation_method                'Generated by PDF-4+ 2020 4.20.0.1'

_chemical_name_systematic             'Vanadium Oxide'
_chemical_formula_moiety              'V4 O7'
_chemical_formula_sum                 'O7 V4'
_chemical_formula_weight              315.76

_cell_length_a                        5.514(2)
_cell_length_b                        7.004(2)
_cell_length_c                        12.260(4)
_cell_angle_alpha                     94.86(1)
_cell_angle_beta                      95.14(1)
_cell_angle_gamma                     109.30(1)
_cell_volume                          441.77
_cell_formula_units_Z                 2.00
_symmetry_cell_setting                triclinic
_symmetry_space_group_name_H-M        A-1
_symmetry_Int_Tables_number           2

loop_
_symmetry_equiv_pos_site_id
_symmetry_equiv_pos_as_xyz
1 x,y,z
2 -x,-y,-z
3 x,y+1/2,z+1/2
4 -x,-y+1/2,-z+1/2

loop_
_atom_site_label
_atom_site_type_symbol
_atom_site_fract_x
_atom_site_fract_y
_atom_site_fract_z
_atom_site_B_iso_or_equiv
_atom_site_symmetry_multiplicity
_atom_site_Wyckoff_symbol
_atom_site_occupancy
V1 V 0.20403 0.14097 0.06209 0.20344 4 i 1.0
V2 V 0.23447 0.65444 0.06923 0.18782 4 i 1.0
V3 V 0.6856 0.44065 0.19798 0.1738 4 i 1.0
V4 V 0.68157 0.94085 0.20017 0.17743 4 i 1.0
O5 O 0.1055 0.8543 0.0138 0.2243 4 i 1.0
O6 O 0.592 0.7932 0.0472 0.3094 4 i 1.0
O7 O 0.1429 0.5058 0.914 0.29927 4 i 1.0
O8 O 0.3305 0.4347 0.1373 0.26422 4 i 1.0
O9 O 0.5247 0.1449 0.1643 0.23124 4 i 1.0
O10 O 0.0418 0.0662 0.1948 0.29242 4 i 1.0
O11 O 0.2955 0.7925 0.225 0.24542 4 i 1.0

loop_
_atom_site_aniso_label
_atom_site_aniso_B_11
_atom_site_aniso_B_12
_atom_site_aniso_B_13
_atom_site_aniso_B_22
_atom_site_aniso_B_23
_atom_site_aniso_B_33
V1 0.277256 0.0785961 0.0100126 0.275523 0.0604373 0.0511857
V2 0.255929 0.0501389 0.0475598 0.241083 0.0763419 0.0565176
V3 0.20261 0.039298 0.0525661 0.258303 0.0667992 0.0469203
V4 0.245265 0.090792 0.100126 0.258303 0.124056 0.0671813
O5 0.298583 0.108408 -0.0250315 0.292743 0.0636183 0.0853096
O6 0.415884 0.149061 0.0 0.430505 0.0636183 0.0853096
O7 0.351902 0.0677552 0.0250315 0.447725 0.127237 0.0639822
O8 0.341238 0.0677552 0.0250315 0.327184 0.0636183 0.0959733
O9 0.362566 0.0542042 0.050063 0.223862 0.0636183 0.0853096
O10 0.266592 0.0948573 0.0 0.499385 0.0636183 0.0853096
O11 0.394557 0.13551 -0.050063 0.275523 0.0636183 0.0746459

