data_Mn4_(_Nb2_O9_)_-_01-070-9473
#Copyright 2019 International Centre for Diffraction Data. All rights reserved.

_audit_creation_date                  2019-11-12
_audit_creation_method                'Generated by PDF-4+ 2020 4.20.0.1'

_chemical_name_systematic             'Manganese Niobium Oxide'
_chemical_name_common                 'tetramanganese diniobate'
_chemical_formula_moiety              'Mn4 ( Nb2 O9 )'
_chemical_formula_sum                 'Mn4 Nb2 O9'
_chemical_formula_weight              549.56

_cell_length_a                        5.34139(2)
_cell_length_b                        5.34139(2)
_cell_length_c                        14.15807(7)
_cell_angle_alpha                     90
_cell_angle_beta                      90
_cell_angle_gamma                     120
_cell_volume                          349.82
_cell_formula_units_Z                 2.00
_symmetry_cell_setting                rhombohedral
_symmetry_space_group_name_H-M        R3c
_symmetry_Int_Tables_number           161

loop_
_symmetry_equiv_pos_site_id
_symmetry_equiv_pos_as_xyz
1 x,y,z
2 -y,x-y,z
3 -x+y,-x,z
4 -y,-x,z+1/2
5 x,x-y,z+1/2
6 -x+y,y,z+1/2
7 x+2/3,y+1/3,z+1/3
8 -y+2/3,x-y+1/3,z+1/3
9 -x+y+2/3,-x+1/3,z+1/3
10 -y+2/3,-x+1/3,z+5/6
11 x+2/3,x-y+1/3,z+5/6
12 -x+y+2/3,y+1/3,z+5/6
13 x+1/3,y+2/3,z+2/3
14 -y+1/3,x-y+2/3,z+2/3
15 -x+y+1/3,-x+2/3,z+2/3
16 -y+1/3,-x+2/3,z+1/6
17 x+1/3,x-y+2/3,z+1/6
18 -x+y+1/3,y+2/3,z+1/6

loop_
_atom_site_label
_atom_site_type_symbol
_atom_site_fract_x
_atom_site_fract_y
_atom_site_fract_z
_atom_site_B_iso_or_equiv
_atom_site_symmetry_multiplicity
_atom_site_Wyckoff_symbol
_atom_site_occupancy
Mn1 Mn 0.0 0.0 0.28225 0.92911 6 a 1.0
Mn2 Mn 0.0 0.0 0.0 1.54043 6 a 0.35
Nb3 Nb 0.0 0.0 0.0 1.54043 6 a 0.65
O4 O 0.0533 0.3479 0.0666 1.8211 18 b 1.0

loop_
_atom_site_aniso_label
_atom_site_aniso_B_11
_atom_site_aniso_B_12
_atom_site_aniso_B_13
_atom_site_aniso_B_22
_atom_site_aniso_B_23
_atom_site_aniso_B_33
Mn1 1.24 0.622 0.0 1.24 0.0 0.31
Mn2 1.02 0.509 0.0 1.02 0.0 2.58
Nb3 1.02 0.509 0.0 1.02 0.0 2.58
O4 1.49 0.0 0.0 1.49 0.0 1.49

