data_04-007-5481
#Copyright 2022 International Centre for Diffraction Data. All rights reserved.

_audit_creation_date                  2022-11-15
_audit_creation_method                'Generated by PDF-4+ 2022 4.22.0.2'

_chemical_name_systematic             'Strontium Aluminum Oxide'
_chemical_name_common                 'tristrontium dialuminum oxide'
_chemical_formula_moiety              'Sr3 Al2 O6'
_chemical_formula_sum                 'Al2 O6 Sr3'
_chemical_formula_weight              412.82

_cell_length_a                        15.8556(4)
_cell_length_b                        15.8556(4)
_cell_length_c                        15.8556(4)
_cell_angle_alpha                     90
_cell_angle_beta                      90
_cell_angle_gamma                     90
_cell_formula_units_Z                 24
_cell_volume                          3986.10
_symmetry_cell_setting                cubic
_symmetry_space_group_name_H-M        Pa-3
_symmetry_Int_Tables_number           205

loop_
_symmetry_equiv_pos_site_id
_symmetry_equiv_pos_as_xyz
1 x,y,z
2 -x,-y,-z
3 x+1/2,-y+1/2,-z
4 -x+1/2,y+1/2,z
5 -x,y+1/2,-z+1/2
6 x,-y+1/2,z+1/2
7 -x+1/2,-y,z+1/2
8 x+1/2,y,-z+1/2
9 z,x,y
10 -z,-x,-y
11 z+1/2,-x+1/2,-y
12 -z+1/2,x+1/2,y
13 -z,x+1/2,-y+1/2
14 z,-x+1/2,y+1/2
15 -z+1/2,-x,y+1/2
16 z+1/2,x,-y+1/2
17 y,z,x
18 -y,-z,-x
19 y+1/2,-z+1/2,-x
20 -y+1/2,z+1/2,x
21 -y,z+1/2,-x+1/2
22 y,-z+1/2,x+1/2
23 -y+1/2,-z,x+1/2
24 y+1/2,z,-x+1/2

loop_
_atom_site_label
_atom_site_type_symbol
_atom_site_fract_x
_atom_site_fract_y
_atom_site_fract_z
_atom_site_B_iso_or_equiv
_atom_site_symmetry_multiplicity
_atom_site_Wyckoff_symbol
_atom_site_occupancy
Sr1 Sr 0.0 0.0 0.0 0.5 4 a 1.0
Sr2 Sr 0.5 0.0 0.0 0.6 4 b 1.0
Sr3 Sr 0.2519 0.2519 0.2519 0.1 8 c 1.0
Sr4 Sr 0.3759 0.3759 0.3759 0.47 8 c 1.0
Sr5 Sr 0.1343 0.375 0.1319 0.71 24 d 1.0
Sr6 Sr 0.3799 0.3855 0.1247 0.39 24 d 1.0
Al7 Al 0.2519 0.0168 0.0193 0.22 24 d 1.0
Al8 Al 0.2381 0.2345 0.0041 0.35 24 d 1.0
O9 O 0.2622 0.1257 0.0028 0.63 24 d 1.0
O10 O 0.4928 0.1295 0.2437 0.59 24 d 1.0
O11 O 0.2704 0.2769 0.1002 0.75 24 d 1.0
O12 O 0.2352 0.4063 0.28 0.48 24 d 1.0
O13 O 0.346 -0.0256 -0.0194 0.77 24 d 1.0
O14 O 0.1539 -0.0176 -0.0168 0.68 24 d 1.0

