data_04-003-2034
#Copyright 2022 International Centre for Diffraction Data. All rights reserved.

_audit_creation_date                  2022-11-15
_audit_creation_method                'Generated by PDF-4+ 2022 4.22.0.2'

_chemical_name_systematic             'Bismuth Oxide'
_chemical_name_common                 '\a-Bi2 O3'
_chemical_formula_moiety              'Bi2 O3'
_chemical_formula_sum                 'Bi2 O3'
_chemical_formula_weight              465.96

_cell_length_a                        5.8486(5)
_cell_length_b                        8.1661(10)
_cell_length_c                        7.5097(8)
_cell_angle_alpha                     90
_cell_angle_beta                      113.00(1)
_cell_angle_gamma                     90
_cell_formula_units_Z                 4
_cell_volume                          330.15
_symmetry_cell_setting                monoclinic
_symmetry_space_group_name_H-M        P21/c
_symmetry_Int_Tables_number           14

loop_
_symmetry_equiv_pos_site_id
_symmetry_equiv_pos_as_xyz
1 x,y,z
2 -x,-y,-z
3 -x,y+1/2,-z+1/2
4 x,-y+1/2,z+1/2

loop_
_atom_site_label
_atom_site_type_symbol
_atom_site_fract_x
_atom_site_fract_y
_atom_site_fract_z
_atom_site_B_iso_or_equiv
_atom_site_symmetry_multiplicity
_atom_site_Wyckoff_symbol
_atom_site_occupancy
Bi1 Bi 0.524 0.1831 0.3613 0.46317 4 e 1.0
Bi2 Bi 0.0409 0.0425 0.7762 0.415 4 e 1.0
O3 O 0.78 0.3 0.71 0.9 4 e 1.0
O4 O 0.242 0.044 0.134 1.2 4 e 1.0
O5 O 0.271 0.024 0.513 0.8 4 e 1.0

loop_
_atom_site_aniso_label
_atom_site_aniso_B_11
_atom_site_aniso_B_12
_atom_site_aniso_B_13
_atom_site_aniso_B_22
_atom_site_aniso_B_23
_atom_site_aniso_B_33
Bi1 0.48692 0.228606 0.357265 0.720187 -0.0677387 0.359393
Bi2 0.5217 -0.0703404 0.431695 0.480125 0.0677387 0.463733

