data_04-007-0515
#Copyright 2022 International Centre for Diffraction Data. All rights reserved.

_audit_creation_date                  2022-11-15
_audit_creation_method                'Generated by PDF-4+ 2022 4.22.0.2'

_chemical_name_systematic             'Vanadium Oxide'
_chemical_name_common                 'vanadium(IV) oxide'
_chemical_formula_moiety              'V O2'
_chemical_formula_sum                 'O2 V'
_chemical_formula_weight              82.94

_cell_length_a                        9.0664(7)
_cell_length_b                        5.797(5)
_cell_length_c                        4.5255(4)
_cell_angle_alpha                     90
_cell_angle_beta                      91.88(1)
_cell_angle_gamma                     90
_cell_formula_units_Z                 8
_cell_volume                          237.72
_symmetry_cell_setting                monoclinic
_symmetry_space_group_name_H-M        C2/m
_symmetry_Int_Tables_number           12

loop_
_symmetry_equiv_pos_site_id
_symmetry_equiv_pos_as_xyz
1 x,y,z
2 -x,-y,-z
3 x,-y,z
4 -x,y,-z
5 x+1/2,y+1/2,z
6 -x+1/2,-y+1/2,-z
7 x+1/2,-y+1/2,z
8 -x+1/2,y+1/2,-z

loop_
_atom_site_label
_atom_site_type_symbol
_atom_site_fract_x
_atom_site_fract_y
_atom_site_fract_z
_atom_site_B_iso_or_equiv
_atom_site_symmetry_multiplicity
_atom_site_Wyckoff_symbol
_atom_site_occupancy
V1 V 0.0 0.7189 0.0 0.87372 4 g 1.0
V2 V 0.2314 0.0 0.5312 0.73409 4 i 1.0
O3 O 0.1482 0.2475 0.2942 0.71044 8 j 1.0
O4 O 0.3969 0.0 0.2089 0.81858 4 i 1.0
O5 O 0.1 0.0 0.7987 0.73254 4 i 1.0

loop_
_atom_site_aniso_label
_atom_site_aniso_B_11
_atom_site_aniso_B_12
_atom_site_aniso_B_13
_atom_site_aniso_B_22
_atom_site_aniso_B_23
_atom_site_aniso_B_33
V1 0.407262 0.0 0.1082 0.510787 0.0 1.70787
V2 0.312015 0.0 0.0278697 0.510787 0.0 1.37943
O3 0.492655 -0.0210113 -0.0491818 0.188185 0.0524392 1.44512
O4 0.459811 0.0 0.131152 0.22851 0.0 1.77356
O5 0.459811 0.0 0.147545 0.201626 0.0 1.54365

