data_04-005-4524
#Copyright 2022 International Centre for Diffraction Data. All rights reserved.

_audit_creation_date                  2022-11-15
_audit_creation_method                'Generated by PDF-4+ 2022 4.22.0.2'

_chemical_name_systematic             'Vanadium Oxide'
_chemical_formula_moiety              'V4 O7'
_chemical_formula_sum                 'O7 V4'
_chemical_formula_weight              315.76

_cell_length_a                        5.509(1)
_cell_length_b                        7.008(1)
_cell_length_c                        12.258(2)
_cell_angle_alpha                     95.09(1)
_cell_angle_beta                      95.19(1)
_cell_angle_gamma                     109.21(1)
_cell_formula_units_Z                 4
_cell_volume                          441.52
_symmetry_cell_setting                triclinic
_symmetry_space_group_name_H-M        A-1
_symmetry_Int_Tables_number           2

loop_
_symmetry_equiv_pos_site_id
_symmetry_equiv_pos_as_xyz
1 x,y,z
2 -x,-y,-z
3 x,y+1/2,z+1/2
4 -x,-y+1/2,-z+1/2

loop_
_atom_site_label
_atom_site_type_symbol
_atom_site_fract_x
_atom_site_fract_y
_atom_site_fract_z
_atom_site_B_iso_or_equiv
_atom_site_symmetry_multiplicity
_atom_site_Wyckoff_symbol
_atom_site_occupancy
V1 V 0.21437 0.1474 0.06317 0.25581 4 i 1.0
V2 V 0.22314 0.65454 0.06686 0.24749 4 i 1.0
V3 V 0.68224 0.4401 0.19969 0.22504 4 i 1.0
V4 V 0.68734 0.94206 0.20173 0.23669 4 i 1.0
O5 O 0.1014 0.8576 0.015 0.2997 4 i 1.0
O6 O 0.5852 0.7954 0.0542 0.34498 4 i 1.0
O7 O 0.8547 0.4937 0.0835 0.3488 4 i 1.0
O8 O 0.3265 0.4356 0.1374 0.33886 4 i 1.0
O9 O 0.5257 0.1437 0.1643 0.26126 4 i 1.0
O10 O 0.0309 0.0639 0.1977 0.32068 4 i 1.0
O11 O 0.7047 0.2079 0.7755 0.2832 4 i 1.0

loop_
_atom_site_aniso_label
_atom_site_aniso_B_11
_atom_site_aniso_B_12
_atom_site_aniso_B_13
_atom_site_aniso_B_22
_atom_site_aniso_B_23
_atom_site_aniso_B_33
V1 0.319512 0.203257 -0.0474932 0.412043 -0.0254423 0.0702925
V2 0.308861 0.192417 0.0149978 0.412043 0.00318029 0.0670974
V3 0.26626 0.168026 0.0549921 0.38101 -0.0286226 0.0670974
V4 0.298211 0.241199 0.0774888 0.436179 0.0318029 0.0734877
O5 0.415365 0.257459 -0.0499928 0.431007 0.0 0.115024
O6 0.308861 0.121954 0.0249964 0.60341 0.0 0.0894632
O7 0.436666 0.203257 0.124982 0.568929 0.0636058 0.0873332
O8 0.511219 0.298111 0.0 0.534449 0.0318029 0.0532519
O9 0.351463 0.189707 -0.0249964 0.396526 0.0 0.0670974
O10 0.319512 0.203257 -0.0249964 0.551689 0.0 0.113959
O11 0.362113 0.243909 -0.0249964 0.482728 0.0318029 0.0692275

