data_04-011-1618
#Copyright 2022 International Centre for Diffraction Data. All rights reserved.

_audit_creation_date                  2022-11-15
_audit_creation_method                'Generated by PDF-4+ 2022 4.22.0.2'

_chemical_name_systematic             'Copper Vanadium Oxide'
_chemical_formula_moiety              'Cu5 ( V O4 )2 O2'
_chemical_formula_sum                 'Cu5 O10 V2'
_chemical_formula_weight              579.60

_cell_length_a                        8.393(2)
_cell_length_b                        6.0652(8)
_cell_length_c                        16.156(3)
_cell_angle_alpha                     90
_cell_angle_beta                      108.09(2)
_cell_angle_gamma                     90
_cell_formula_units_Z                 4
_cell_volume                          781.77
_symmetry_cell_setting                monoclinic
_symmetry_space_group_name_H-M        P21/c
_symmetry_Int_Tables_number           14

loop_
_symmetry_equiv_pos_site_id
_symmetry_equiv_pos_as_xyz
1 x,y,z
2 -x,-y,-z
3 -x,y+1/2,-z+1/2
4 x,-y+1/2,z+1/2

loop_
_atom_site_label
_atom_site_type_symbol
_atom_site_fract_x
_atom_site_fract_y
_atom_site_fract_z
_atom_site_U_iso_or_equiv
_atom_site_symmetry_multiplicity
_atom_site_Wyckoff_symbol
_atom_site_occupancy
Cu1 Cu 0.06052 -0.05305 0.10166 0.00859 4 e 1.0
Cu2 Cu 0.26391 0.2438 0.48448 0.00824 4 e 1.0
Cu3 Cu 0.16051 0.18317 0.28887 0.01195 4 e 1.0
Cu4 Cu 0.04069 0.45348 0.09186 0.0098 4 e 1.0
Cu5 Cu 0.37081 0.22379 0.17954 0.01177 4 e 1.0
V6 V 0.43036 0.71053 0.09887 0.00576 4 e 1.0
V7 V 0.21585 0.69313 0.32889 0.00642 4 e 1.0
O8 O 0.4026 0.1961 0.3048 0.0113 4 e 1.0
O9 O 0.491 0.2546 0.482 0.01153 4 e 1.0
O10 O 0.293 0.9213 0.0983 0.01589 4 e 1.0
O11 O 0.3208 0.4582 0.0849 0.01208 4 e 1.0
O12 O 0.4033 0.6853 0.3161 0.01581 4 e 1.0
O13 O 0.1752 0.461 0.3867 0.00914 4 e 1.0
O14 O 0.1878 0.9371 0.3778 0.01197 4 e 1.0
O15 O 0.076 0.6854 0.2236 0.01395 4 e 1.0
O16 O 0.1345 0.2131 0.1668 0.009 4 e 1.0
O17 O 0.0315 0.2116 0.4764 0.0094 4 e 1.0

loop_
_atom_site_aniso_label
_atom_site_aniso_U_11
_atom_site_aniso_U_12
_atom_site_aniso_U_13
_atom_site_aniso_U_22
_atom_site_aniso_U_23
_atom_site_aniso_U_33
Cu1 0.0068 -5.0E-4 0.0013 0.0085 -0.0018 0.0096
Cu2 0.0066 4.0E-4 9.5E-4 0.0101 0.0015 0.0072
Cu3 0.0065 -1.0E-4 7.5E-4 0.0223 0.0015 0.0062
Cu4 0.0116 0.0017 0.0023 0.0085 0.0014 0.0087
Cu5 0.0048 7.0E-4 9.5E-4 0.0219 0.0017 0.0079
V6 0.005 0.0 6.5E-4 0.006 -7.0E-4 0.0056
V7 0.0052 5.0E-5 0.0011 0.0065 5.0E-4 0.007
O8 0.0104 -7.5E-4 0.0 0.0164 1.0E-4 0.0054
O9 0.0067 -3.0E-4 5.0E-4 0.018 -2.0E-4 0.0086
O10 0.0067 0.001 0.0022 0.0173 -0.0031 0.0221
O11 0.0141 -0.0011 9.0E-4 0.0135 -6.5E-4 0.007
O12 0.0111 -4.0E-4 0.0035 0.0203 2.0E-4 0.0156
O13 0.0086 0.0014 0.002 0.0082 6.5E-4 0.01
O14 0.0151 -9.0E-4 0.0028 0.0094 5.5E-4 0.0106
O15 0.0083 9.0E-4 0.0014 0.0241 0.001 0.0086
O16 0.0101 -7.0E-4 0.0015 0.0091 0.001 0.007
O17 0.0086 5.0E-4 0.0016 0.0116 4.0E-4 0.0074

