data_01-080-6417
#Copyright 2023 International Centre for Diffraction Data. All rights reserved.

_audit_creation_date                  2023-07-20
_audit_creation_method                'Generated by PDF-4+ 2022 4.22.0.2'

_chemical_name_systematic             'Tin Oxide'
_chemical_name_common                 'tin dioxide'
_chemical_formula_moiety              'Sn O2'
_chemical_formula_sum                 'O2 Sn'
_chemical_formula_weight              150.71

_cell_length_a                        4.737(1)
_cell_length_b                        4.737(1)
_cell_length_c                        3.185(1)
_cell_angle_alpha                     90
_cell_angle_beta                      90
_cell_angle_gamma                     90
_cell_formula_units_Z                 2
_cell_volume                          71.47
_symmetry_cell_setting                tetragonal
_symmetry_space_group_name_H-M        P42/mnm
_symmetry_Int_Tables_number           136

loop_
_symmetry_equiv_pos_site_id
_symmetry_equiv_pos_as_xyz
1 x,y,z
2 -x,-y,-z
3 -x,-y,z
4 x,y,-z
5 x+1/2,-y+1/2,z+1/2
6 -x+1/2,y+1/2,-z+1/2
7 -x+1/2,y+1/2,z+1/2
8 x+1/2,-y+1/2,-z+1/2
9 y,x,z
10 -y,-x,-z
11 -y,-x,z
12 y,x,-z
13 y+1/2,-x+1/2,z+1/2
14 -y+1/2,x+1/2,-z+1/2
15 -y+1/2,x+1/2,z+1/2
16 y+1/2,-x+1/2,-z+1/2

loop_
_atom_site_label
_atom_site_type_symbol
_atom_site_fract_x
_atom_site_fract_y
_atom_site_fract_z
_atom_site_B_iso_or_equiv
_atom_site_symmetry_multiplicity
_atom_site_Wyckoff_symbol
_atom_site_occupancy
O1 O 0.307 0.307 0.0 0.1 4 f 1.0
Sn2 Sn 0.0 0.0 0.0 0.1 2 a 1.0

