data_01-088-0870
#Copyright 2022 International Centre for Diffraction Data. All rights reserved.

_audit_creation_date                  2022-11-15
_audit_creation_method                'Generated by PDF-4+ 2022 4.22.0.2'

_chemical_name_systematic             'Bismuth Vanadium Oxide'
_chemical_name_common                 '\a-Bi2 V O5.5'
_chemical_formula_moiety              'Bi2 V O5.5'
_chemical_formula_sum                 'Bi2 O5.5 V'
_chemical_formula_weight              556.90

_cell_length_a                        5.598(2)
_cell_length_b                        15.292(9)
_cell_length_c                        5.532(2)
_cell_angle_alpha                     90
_cell_angle_beta                      90
_cell_angle_gamma                     90
_cell_formula_units_Z                 4
_cell_volume                          473.56
_symmetry_cell_setting                orthorhombic
_symmetry_space_group_name_H-M        Aea2
_symmetry_Int_Tables_number           41

loop_
_symmetry_equiv_pos_site_id
_symmetry_equiv_pos_as_xyz
1 x,y,z
2 -x,-y,z
3 -x+1/2,y+1/2,z
4 x+1/2,-y+1/2,z
5 x,y+1/2,z+1/2
6 -x,-y+1/2,z+1/2
7 -x+1/2,y,z+1/2
8 x+1/2,-y,z+1/2

loop_
_atom_site_label
_atom_site_type_symbol
_atom_site_fract_x
_atom_site_fract_y
_atom_site_fract_z
_atom_site_B_iso_or_equiv
_atom_site_symmetry_multiplicity
_atom_site_Wyckoff_symbol
_atom_site_occupancy
Bi1 Bi 0.4293 0.1689 0.0 1.49 8 b 1.0
V2 V 0.0 0.0 0.0508 2.2 4 a 1.0
O3 O 0.2423 0.2494 0.3064 2.74 8 b 1.0
O4 O 0.245 0.4943 0.352 2.89 8 b 1.0
O5 O -0.0174 0.1226 0.117 2.44 8 b 0.75

