data_04-015-4536
#Copyright 2022 International Centre for Diffraction Data. All rights reserved.

_audit_creation_date                  2022-11-15
_audit_creation_method                'Generated by PDF-4+ 2022 4.22.0.2'

_chemical_name_systematic             'Copper Vanadium Oxide'
_chemical_formula_moiety              'Cu0.64 V2 O5'
_chemical_formula_sum                 'Cu0.64 O5 V2'
_chemical_formula_weight              222.55

_cell_length_a                        11.313
_cell_length_b                        4.804
_cell_length_c                        3.613
_cell_angle_alpha                     90
_cell_angle_beta                      90
_cell_angle_gamma                     90
_cell_formula_units_Z                 2
_cell_volume                          196.36
_symmetry_cell_setting                orthorhombic
_symmetry_space_group_name_H-M        Pmnm
_symmetry_Int_Tables_number           59

loop_
_symmetry_equiv_pos_site_id
_symmetry_equiv_pos_as_xyz
1 x,y,z
2 -x,-y,-z
3 x,y,-z+1/2
4 -x,-y,z+1/2
5 -x+1/2,y,z
6 x+1/2,-y,-z
7 -x+1/2,y,-z+1/2
8 x+1/2,-y,z+1/2

loop_
_atom_site_label
_atom_site_type_symbol
_atom_site_fract_x
_atom_site_fract_y
_atom_site_fract_z
_atom_site_U_iso_or_equiv
_atom_site_symmetry_multiplicity
_atom_site_Wyckoff_symbol
_atom_site_occupancy
Cu1 Cu 0.25 0.6385 0.75 . 2 b 0.64
V2 V 0.4019 0.1078 0.25 . 4 e 1.0
O3 O 0.386 0.447 0.25 . 4 e 1.0
O4 O 0.572 0.012 0.25 . 4 e 1.0
O5 O 0.25 0.983 0.25 . 2 a 1.0

