data_04-012-3018
#Copyright 2022 International Centre for Diffraction Data. All rights reserved.

_audit_creation_date                  2022-11-15
_audit_creation_method                'Generated by PDF-4+ 2022 4.22.0.2'

_chemical_name_systematic             'Copper Vanadium Bismuth Oxide'
_chemical_formula_moiety              'Cu2 V2 Bi0.95 O8'
_chemical_formula_sum                 'Bi0.95 Cu2 O8 V2'
_chemical_formula_weight              555.50

_cell_length_a                        9.945(2)
_cell_length_b                        9.945(2)
_cell_length_c                        2.915(3)
_cell_angle_alpha                     90
_cell_angle_beta                      90
_cell_angle_gamma                     90
_cell_formula_units_Z                 2
_cell_volume                          288.30
_symmetry_cell_setting                tetragonal
_symmetry_space_group_name_H-M        I4/m
_symmetry_Int_Tables_number           87

loop_
_symmetry_equiv_pos_site_id
_symmetry_equiv_pos_as_xyz
1 x,y,z
2 -x,-y,-z
3 -x,-y,z
4 x,y,-z
5 -y,x,z
6 y,-x,-z
7 y,-x,z
8 -y,x,-z
9 x+1/2,y+1/2,z+1/2
10 -x+1/2,-y+1/2,-z+1/2
11 -x+1/2,-y+1/2,z+1/2
12 x+1/2,y+1/2,-z+1/2
13 -y+1/2,x+1/2,z+1/2
14 y+1/2,-x+1/2,-z+1/2
15 y+1/2,-x+1/2,z+1/2
16 -y+1/2,x+1/2,-z+1/2

loop_
_atom_site_label
_atom_site_type_symbol
_atom_site_fract_x
_atom_site_fract_y
_atom_site_fract_z
_atom_site_U_iso_or_equiv
_atom_site_symmetry_multiplicity
_atom_site_Wyckoff_symbol
_atom_site_occupancy
Bi1 Bi 0.0 0.0 0.0735 0.02433 4 e 0.475
Cu2 Cu 0.3548 0.1698 0.0 0.00667 8 h 0.5
V3 V 0.3548 0.1698 0.0 0.00667 8 h 0.5
O4 O 0.1531 0.1938 0.0 0.01533 8 h 1.0
O5 O 0.5424 0.1653 0.0 0.01333 8 h 1.0

loop_
_atom_site_aniso_label
_atom_site_aniso_U_11
_atom_site_aniso_U_12
_atom_site_aniso_U_13
_atom_site_aniso_U_22
_atom_site_aniso_U_23
_atom_site_aniso_U_33
Bi1 0.022 0.0 0.0 0.022 0.0 0.029
Cu2 0.006 0.0 0.0 0.007 0.0 0.007
V3 0.006 0.0 0.0 0.007 0.0 0.007
O4 0.012 0.002 0.0 0.017 0.0 0.017
O5 0.01 0.001 0.0 0.018 0.0 0.012

