data_04-011-5345
#Copyright 2022 International Centre for Diffraction Data. All rights reserved.

_audit_creation_date                  2022-11-15
_audit_creation_method                'Generated by PDF-4+ 2022 4.22.0.2'

_chemical_name_systematic             'Copper Vanadium Bismuth Oxide'
_chemical_formula_moiety              'Cu3 V2 Bi4 O14'
_chemical_formula_sum                 'Bi4 Cu3 O14 V2'
_chemical_formula_weight              1352.43

_cell_length_a                        5.317(2)
_cell_length_b                        7.916(4)
_cell_length_c                        8.095(5)
_cell_angle_alpha                     74.58(5)
_cell_angle_beta                      89.38(4)
_cell_angle_gamma                     70.39(3)
_cell_formula_units_Z                 1
_cell_volume                          308.24
_symmetry_cell_setting                triclinic
_symmetry_space_group_name_H-M        P-1
_symmetry_Int_Tables_number           2

loop_
_symmetry_equiv_pos_site_id
_symmetry_equiv_pos_as_xyz
1 x,y,z
2 -x,-y,-z

loop_
_atom_site_label
_atom_site_type_symbol
_atom_site_fract_x
_atom_site_fract_y
_atom_site_fract_z
_atom_site_U_iso_or_equiv
_atom_site_symmetry_multiplicity
_atom_site_Wyckoff_symbol
_atom_site_occupancy
Bi1 Bi 0.10793 -0.2046 0.69944 0.0096 2 i 1.0
Bi2 Bi 0.42486 0.15405 0.63975 0.0106 2 i 1.0
Cu3 Cu -0.3625 -0.2236 -0.0257 0.0086 2 i 1.0
Cu4 Cu 0.0 0.0 0.0 0.0078 1 a 1.0
V5 V 0.2506 -0.4285 0.2456 0.0087 2 i 1.0
O6 O 0.2904 -0.0696 -0.1488 0.008 2 i 1.0
O7 O 0.2261 0.0437 0.1669 0.01 2 i 1.0
O8 O -0.001 -0.3373 0.0868 0.04 2 i 1.0
O9 O -0.4742 -0.3906 0.1548 0.022 2 i 1.0
O10 O 0.1811 -0.3213 0.4045 0.024 2 i 1.0
O11 O 0.3302 0.3292 0.325 0.013 2 i 1.0
O12 O 0.2474 -0.0025 0.5043 0.006 2 i 1.0

