data_04-011-2933
#Copyright 2022 International Centre for Diffraction Data. All rights reserved.

_audit_creation_date                  2022-11-16
_audit_creation_method                'Generated by PDF-4+ 2022 4.22.0.2'

_chemical_name_systematic             'Vanadium Bismuth Oxide'
_chemical_formula_moiety              'V4 Bi0.85 O8'
_chemical_formula_sum                 'Bi0.85 O8 V4'
_chemical_formula_weight              509.39

_cell_length_a                        9.930(4)
_cell_length_b                        9.930(4)
_cell_length_c                        2.914(1)
_cell_angle_alpha                     90
_cell_angle_beta                      90
_cell_angle_gamma                     90
_cell_formula_units_Z                 2
_cell_volume                          287.33
_symmetry_cell_setting                tetragonal
_symmetry_space_group_name_H-M        I4/m
_symmetry_Int_Tables_number           87

loop_
_symmetry_equiv_pos_site_id
_symmetry_equiv_pos_as_xyz
1 x,y,z
2 -x,-y,-z
3 -x,-y,z
4 x,y,-z
5 -y,x,z
6 y,-x,-z
7 y,-x,z
8 -y,x,-z
9 x+1/2,y+1/2,z+1/2
10 -x+1/2,-y+1/2,-z+1/2
11 -x+1/2,-y+1/2,z+1/2
12 x+1/2,y+1/2,-z+1/2
13 -y+1/2,x+1/2,z+1/2
14 y+1/2,-x+1/2,-z+1/2
15 y+1/2,-x+1/2,z+1/2
16 -y+1/2,x+1/2,-z+1/2

loop_
_atom_site_label
_atom_site_type_symbol
_atom_site_fract_x
_atom_site_fract_y
_atom_site_fract_z
_atom_site_U_iso_or_equiv
_atom_site_symmetry_multiplicity
_atom_site_Wyckoff_symbol
_atom_site_occupancy
Bi1 Bi 0.0 0.0 0.10449 0.02053 4 e 0.406
V2 V 0.35504 0.17023 0.0 0.00687 8 h 1.0
O3 O 0.15302 0.19406 0.0 0.0075 8 h 1.0
O4 O 0.54078 0.16439 0.0 0.0081 8 h 1.0

loop_
_atom_site_aniso_label
_atom_site_aniso_U_11
_atom_site_aniso_U_12
_atom_site_aniso_U_13
_atom_site_aniso_U_22
_atom_site_aniso_U_23
_atom_site_aniso_U_33
Bi1 0.0147 0.0 0.0 0.0147 0.0 0.0322
V2 0.0058 2.0E-4 0.0 0.0058 0.0 0.009

