data_01-070-1696
#Copyright 2022 International Centre for Diffraction Data. All rights reserved.

_audit_creation_date                  2022-11-15
_audit_creation_method                'Generated by PDF-4+ 2022 4.22.0.2'

_chemical_name_systematic             'Copper Vanadium Oxide'
_chemical_formula_moiety              'Cu4 V2.15 O9.38'
_chemical_formula_sum                 'Cu4 O9.38 V2.15'
_chemical_formula_weight              513.78

_cell_length_a                        15.021
_cell_length_b                        8.564
_cell_length_c                        6.055
_cell_angle_alpha                     90
_cell_angle_beta                      90
_cell_angle_gamma                     90
_cell_formula_units_Z                 4
_cell_volume                          778.91
_symmetry_cell_setting                orthorhombic
_symmetry_space_group_name_H-M        P212121
_symmetry_Int_Tables_number           19

loop_
_symmetry_equiv_pos_site_id
_symmetry_equiv_pos_as_xyz
1 x,y,z
2 -x+1/2,-y,z+1/2
3 x+1/2,-y+1/2,-z
4 -x,y+1/2,-z+1/2

loop_
_atom_site_label
_atom_site_type_symbol
_atom_site_fract_x
_atom_site_fract_y
_atom_site_fract_z
_atom_site_U_iso_or_equiv
_atom_site_symmetry_multiplicity
_atom_site_Wyckoff_symbol
_atom_site_occupancy
Cu1 Cu 0.0343 0.355 0.0 . 4 a 1.0
Cu2 Cu 0.3911 0.3675 0.2261 . 4 a 1.0
Cu3 Cu 0.3864 0.3692 0.7205 . 4 a 1.0
Cu4 Cu 0.3232 0.0853 -0.0223 . 4 a 1.0
V5 V 0.1701 0.3136 0.4631 . 4 a 1.0
V6 V 0.4053 0.0258 0.4757 . 4 a 1.0
V7 V 0.209 0.3669 -0.0592 . 4 a 0.15
O8 O 0.023 0.13 0.001 . 4 a 1.0
O9 O 0.312 0.313 -0.03 . 4 a 1.0
O10 O 0.197 0.039 -0.026 . 4 a 1.0
O11 O 0.13 0.401 0.222 . 4 a 1.0
O12 O 0.424 0.139 0.231 . 4 a 1.0
O13 O 0.126 0.409 0.701 . 4 a 1.0
O14 O 0.42 0.142 0.71 . 4 a 1.0
O15 O 0.137 0.124 0.476 . 4 a 1.0
O16 O 0.28 0.326 0.469 . 4 a 1.0
O17 O 0.466 0.418 0.469 . 4 a 1.0

