data_01-085-1730
#Copyright 2022 International Centre for Diffraction Data. All rights reserved.

_audit_creation_date                  2022-11-15
_audit_creation_method                'Generated by PDF-4+ 2022 4.22.0.2'

_chemical_name_systematic             'Bismuth Vanadium Oxide'
_chemical_name_common                 'bismuth vanadate'
_chemical_formula_moiety              'Bi V O4'
_chemical_formula_sum                 'Bi O4 V'
_chemical_formula_weight              323.92

_cell_length_a                        5.328(2)
_cell_length_b                        5.052(2)
_cell_length_c                        12.003(3)
_cell_angle_alpha                     90
_cell_angle_beta                      90
_cell_angle_gamma                     90
_cell_formula_units_Z                 4
_cell_volume                          323.09
_symmetry_cell_setting                orthorhombic
_symmetry_space_group_name_H-M        Pnca
_symmetry_Int_Tables_number           60

loop_
_symmetry_equiv_pos_site_id
_symmetry_equiv_pos_as_xyz
1 x,y,z
2 -x,-y,-z
3 x+1/2,-y+1/2,-z+1/2
4 -x+1/2,y+1/2,z+1/2
5 -x,y+1/2,-z+1/2
6 x,-y+1/2,z+1/2
7 -x+1/2,-y,z
8 x+1/2,y,-z

loop_
_atom_site_label
_atom_site_type_symbol
_atom_site_fract_x
_atom_site_fract_y
_atom_site_fract_z
_atom_site_U_iso_or_equiv
_atom_site_symmetry_multiplicity
_atom_site_Wyckoff_symbol
_atom_site_occupancy
Bi1 Bi 0.25 0.0 0.1096 0.011 4 c 1.0
V2 V 0.25 0.0 0.3938 0.01017 4 c 1.0
O3 O 0.083 0.258 0.4664 0.011 8 d 1.0
O4 O 0.458 0.143 0.3077 0.01433 8 d 1.0

loop_
_atom_site_aniso_label
_atom_site_aniso_U_11
_atom_site_aniso_U_12
_atom_site_aniso_U_13
_atom_site_aniso_U_22
_atom_site_aniso_U_23
_atom_site_aniso_U_33
Bi1 0.013 -0.001 0.0 0.0091 0.0 0.0109
V2 0.013 0.001 0.0 0.0075 0.0 0.01
O3 0.009 0.005 -0.0042 0.013 -0.009 0.011
O4 0.014 0.0 0.003 0.017 0.0 0.012

