data_04-006-9431
#Copyright 2022 International Centre for Diffraction Data. All rights reserved.

_audit_creation_date                  2022-11-15
_audit_creation_method                'Generated by PDF-4+ 2022 4.22.0.2'

_chemical_name_systematic             'Bismuth Oxide'
_chemical_name_common                 'dibismuth tetraoxide'
_chemical_formula_moiety              'Bi O2'
_chemical_formula_sum                 'Bi O2'
_chemical_formula_weight              240.98

_cell_length_a                        12.3668(2)
_cell_length_b                        5.1180(1)
_cell_length_c                        5.5670(1)
_cell_angle_alpha                     90
_cell_angle_beta                      107.838(1)
_cell_angle_gamma                     90
_cell_formula_units_Z                 8
_cell_volume                          335.41
_symmetry_cell_setting                monoclinic
_symmetry_space_group_name_H-M        C2/c
_symmetry_Int_Tables_number           15

loop_
_symmetry_equiv_pos_site_id
_symmetry_equiv_pos_as_xyz
1 x,y,z
2 -x,-y,-z
3 -x,y,-z+1/2
4 x,-y,z+1/2
5 x+1/2,y+1/2,z
6 -x+1/2,-y+1/2,-z
7 -x+1/2,y+1/2,-z+1/2
8 x+1/2,-y+1/2,z+1/2

loop_
_atom_site_label
_atom_site_type_symbol
_atom_site_fract_x
_atom_site_fract_y
_atom_site_fract_z
_atom_site_B_iso_or_equiv
_atom_site_symmetry_multiplicity
_atom_site_Wyckoff_symbol
_atom_site_occupancy
Bi1 Bi 0.25 0.25 0.0 0.6 4 c 1.0
Bi2 Bi 0.0 0.268 0.25 1.2 4 e 1.0
O3 O 0.1787 0.063 0.652 1.5 8 f 1.0
O4 O 0.0933 0.416 0.973 1.3 8 f 1.0

