data_V2_Mn2_O7_-_04-010-0727
#Copyright 2019 International Centre for Diffraction Data. All rights reserved.

_audit_creation_date                  2019-11-15
_audit_creation_method                'Generated by PDF-4+ 2020 4.20.0.1'

_chemical_name_systematic             'Vanadium Manganese Oxide'
_chemical_name_common                 '\a-Mn2 ( V2 O7 ), \a-V2 Mn2 O7'
_chemical_formula_moiety              'V2 Mn2 O7'
_chemical_formula_sum                 'Mn2 O7 V2'
_chemical_formula_weight              323.75

_cell_length_a                        6.868(2)
_cell_length_b                        7.976(2)
_cell_length_c                        10.927(2)
_cell_angle_alpha                     87.81(1)
_cell_angle_beta                      72.14(1)
_cell_angle_gamma                     83.08(1)
_cell_volume                          565.58
_cell_formula_units_Z                 4.00
_symmetry_cell_setting                triclinic
_symmetry_space_group_name_H-M        P-1
_symmetry_Int_Tables_number           2

loop_
_symmetry_equiv_pos_site_id
_symmetry_equiv_pos_as_xyz
1 x,y,z
2 -x,-y,-z

loop_
_atom_site_label
_atom_site_type_symbol
_atom_site_fract_x
_atom_site_fract_y
_atom_site_fract_z
_atom_site_U_iso_or_equiv
_atom_site_symmetry_multiplicity
_atom_site_Wyckoff_symbol
_atom_site_occupancy
Mn1 Mn 0.417 0.4034 0.902 0.01213 2 i 1.0
Mn2 Mn 0.0799 0.1428 0.0792 0.00928 2 i 1.0
V3 V 0.0538 0.5954 0.1498 0.00826 2 i 1.0
O4 O 0.1888 0.9155 0.9641 0.01291 2 i 1.0
Mn5 Mn 0.1034 0.1137 0.5838 0.00824 2 i 1.0
V6 V 0.5673 0.1684 0.6331 0.00801 2 i 1.0
Mn7 Mn 0.4014 0.4057 0.406 0.0092 2 i 1.0
O8 O 0.4004 0.1778 0.0432 0.01305 2 i 1.0
V9 V 0.0744 0.7132 0.6408 0.00789 2 i 1.0
V10 V 0.5657 0.1461 0.1298 0.00735 2 i 1.0
O11 O 0.5094 0.0189 0.7533 0.0207 2 i 1.0
O12 O 0.4468 0.679 0.7865 0.015 2 i 1.0
O13 O 0.1826 0.8899 0.4613 0.01 2 i 1.0
O14 O 0.4532 0.6441 0.2948 0.01054 2 i 1.0
O15 O 0.6941 0.4201 0.9454 0.01077 2 i 1.0
O16 O 0.0628 0.905 0.7124 0.01178 2 i 1.0
O17 O 0.0254 0.7092 0.2762 0.02017 2 i 1.0
O18 O 0.7012 0.4112 0.4353 0.00831 2 i 1.0
O19 O 0.1227 0.3284 0.9269 0.01258 2 i 1.0
O20 O 0.1194 0.3075 0.4196 0.01346 2 i 1.0
O21 O 0.997 0.6149 0.7977 0.01434 2 i 1.0
O22 O 0.4036 0.1823 0.5434 0.01146 2 i 1.0

loop_
_atom_site_aniso_label
_atom_site_aniso_U_11
_atom_site_aniso_U_12
_atom_site_aniso_U_13
_atom_site_aniso_U_22
_atom_site_aniso_U_23
_atom_site_aniso_U_33
Mn1 0.007 -0.002 -0.001 0.02 -0.006 0.009
Mn2 0.009 -0.002 -0.004 0.01 -0.002 0.01
V3 0.007 0.0 -0.003 0.009 -0.001 0.009
O4 0.008 0.002 -0.004 0.01 -0.003 0.02
Mn5 0.009 -0.001 -0.003 0.007 -0.001 0.009
V6 0.008 0.0 -0.001 0.008 -0.001 0.007
Mn7 0.009 -0.002 -0.003 0.009 -0.001 0.01
O8 0.013 -0.004 -0.009 0.017 0.002 0.013
V9 0.007 0.0 -0.003 0.009 -0.001 0.008
V10 0.006 -0.001 -0.002 0.008 0.0 0.008
O11 0.018 -0.004 -0.003 0.023 0.009 0.019
O12 0.013 0.0 0.001 0.017 -0.009 0.012
O13 0.005 0.0 -0.003 0.01 -0.003 0.015
O14 0.016 0.002 -0.002 0.007 -0.003 0.007
O15 0.007 0.0 -0.001 0.013 -0.002 0.011
O16 0.016 -0.002 -0.003 0.008 -0.003 0.011
O17 0.02 0.001 -0.008 0.023 -0.012 0.019
O18 0.007 0.002 -0.002 0.009 0.0 0.008
O19 0.008 0.0 -0.005 0.014 0.004 0.016
O20 0.011 -0.001 -0.01 0.016 0.002 0.017
O21 0.019 0.0 -0.001 0.011 0.003 0.01
O22 0.009 -0.003 -0.006 0.009 0.002 0.018

