data_O7_V4_-_03-065-6448
#Copyright 2019 International Centre for Diffraction Data. All rights reserved.

_audit_creation_date                  2019-11-15
_audit_creation_method                'Generated by PDF-4+ 2020 4.20.0.1'

_chemical_name_systematic             'Vanadium Oxide'
_chemical_formula_moiety              'O7 V4'
_chemical_formula_sum                 'O7 V4'
_chemical_formula_weight              315.76

_cell_length_a                        5.509(1)
_cell_length_b                        7.008(2)
_cell_length_c                        12.256(2)
_cell_angle_alpha                     95.1
_cell_angle_beta                      95.17
_cell_angle_gamma                     109.25
_cell_volume                          441.34
_cell_formula_units_Z                 2.00
_symmetry_cell_setting                triclinic
_symmetry_space_group_name_H-M        P-1
_symmetry_Int_Tables_number           2

loop_
_symmetry_equiv_pos_site_id
_symmetry_equiv_pos_as_xyz
1 x,y,z
2 -x,-y,-z

loop_
_atom_site_label
_atom_site_type_symbol
_atom_site_fract_x
_atom_site_fract_y
_atom_site_fract_z
_atom_site_U_iso_or_equiv
_atom_site_symmetry_multiplicity
_atom_site_Wyckoff_symbol
_atom_site_occupancy
O1 O 0.0309 0.0641 0.1982 . . . 1.0
O2 O 0.1005 0.8576 0.015 . . . 1.0
O3 O 0.2955 0.7922 0.2243 . . . 1.0
O4 O 0.3271 0.4367 0.1373 . . . 1.0
O5 O 0.5257 0.1433 0.1642 . . . 1.0
O6 O 0.5864 0.7958 0.0545 . . . 1.0
O7 O 0.8549 0.4932 0.0836 . . . 1.0
V8 V 0.2146 0.1468 0.0629 . . . 1.0
V9 V 0.223 0.655 0.0671 . . . 1.0
V10 V 0.6822 0.4403 0.1996 . . . 1.0
V11 V 0.6874 0.9419 0.2018 . . . 1.0

