data_V7_O13_-_04-008-7711
#Copyright 2019 International Centre for Diffraction Data. All rights reserved.

_audit_creation_date                  2019-11-15
_audit_creation_method                'Generated by PDF-4+ 2020 4.20.0.1'

_chemical_name_systematic             'Vanadium Oxide'
_chemical_formula_moiety              'V7 O13'
_chemical_formula_sum                 'O13 V7'
_chemical_formula_weight              564.58

_cell_length_a                        5.439
_cell_length_b                        7.005
_cell_length_c                        35.516
_cell_angle_alpha                     40.9
_cell_angle_beta                      72.6
_cell_angle_gamma                     109
_cell_volume                          397.03
_cell_formula_units_Z                 2.00
_symmetry_cell_setting                triclinic
_symmetry_space_group_name_H-M        P-1
_symmetry_Int_Tables_number           2

loop_
_symmetry_equiv_pos_site_id
_symmetry_equiv_pos_as_xyz
1 x,y,z
2 -x,-y,-z

loop_
_atom_site_label
_atom_site_type_symbol
_atom_site_fract_x
_atom_site_fract_y
_atom_site_fract_z
_atom_site_B_iso_or_equiv
_atom_site_symmetry_multiplicity
_atom_site_Wyckoff_symbol
_atom_site_occupancy
V1 V -0.00252 0.45066 0.0522 0.33 2 i 1.0
V2 V -0.02908 -0.07677 0.05763 0.35 2 i 1.0
V3 V -0.03877 0.45346 0.20618 0.32 2 i 1.0
V4 V -0.04913 -0.06302 0.20821 0.36 2 i 1.0
V5 V -0.03579 0.45384 0.35639 0.41 2 i 1.0
V6 V -0.02066 -0.02454 0.35202 0.38 2 i 1.0
V7 V 0.0 0.5 0.5 0.43 1 g 1.0
V8 V 0.0 0.0 0.5 0.36 1 b 1.0
O9 O 0.6889 0.4124 0.02784 0.46 2 i 1.0
O10 O 0.3196 0.5594 0.05591 0.47 2 i 1.0
O11 O 0.6831 0.4646 0.09284 0.43 2 i 1.0
O12 O 0.3666 0.6095 0.12549 0.52 2 i 1.0
O13 O 0.695 0.4085 0.1802 0.63 2 i 1.0
O14 O 0.3121 0.5912 0.20865 0.45 2 i 1.0
O15 O 0.6659 0.4464 0.25189 0.48 2 i 1.0
O16 O 0.3208 0.5357 0.29412 0.49 2 i 1.0
O17 O 0.7016 0.4175 0.33115 0.62 2 i 1.0
O18 O 0.3066 0.5915 0.36205 0.66 2 i 1.0
O19 O 0.6813 0.4656 0.4 0.64 2 i 1.0
O20 O 0.3143 0.5279 0.4483 0.54 2 i 1.0
O21 O 0.695 0.4092 0.48466 0.52 2 i 1.0

