data_V_O2_-_04-007-0459
#Copyright 2019 International Centre for Diffraction Data. All rights reserved.

_audit_creation_date                  2019-11-15
_audit_creation_method                'Generated by PDF-4+ 2020 4.20.0.1'

_chemical_name_systematic             'Vanadium Oxide'
_chemical_formula_moiety              'V O2'
_chemical_formula_sum                 'O2 V'
_chemical_formula_weight              82.94

_cell_length_a                        9.06
_cell_length_b                        5.7721
_cell_length_c                        4.5203
_cell_angle_alpha                     89.99
_cell_angle_beta                      91.4
_cell_angle_gamma                     89.83
_cell_volume                          236.32
_cell_formula_units_Z                 4.00
_symmetry_cell_setting                triclinic
_symmetry_space_group_name_H-M        C-1
_symmetry_Int_Tables_number           2

loop_
_symmetry_equiv_pos_site_id
_symmetry_equiv_pos_as_xyz
1 x,y,z
2 -x,-y,-z
3 x+1/2,y+1/2,z
4 -x+1/2,-y+1/2,-z

loop_
_atom_site_label
_atom_site_type_symbol
_atom_site_fract_x
_atom_site_fract_y
_atom_site_fract_z
_atom_site_U_iso_or_equiv
_atom_site_symmetry_multiplicity
_atom_site_Wyckoff_symbol
_atom_site_occupancy
V1 V -0.0043 0.72111 -0.00699 0.00773 4 i 1.0
V2 V 0.233 -0.00797 0.52695 0.00796 4 i 1.0
O3 O 0.1494 0.2494 0.2979 0.0068 4 i 1.0
O4 O 0.3965 8.0E-4 0.2103 0.0067 4 i 1.0
O5 O 0.0998 -9.0E-4 0.7978 0.0067 4 i 1.0
O6 O 0.1463 0.7542 0.293 0.0064 4 i 1.0

loop_
_atom_site_aniso_label
_atom_site_aniso_U_11
_atom_site_aniso_U_12
_atom_site_aniso_U_13
_atom_site_aniso_U_22
_atom_site_aniso_U_23
_atom_site_aniso_U_33
V1 0.0084 -4.0E-4 0.0023 0.0066 -7.0E-4 0.0083
V2 0.0063 8.0E-4 -0.0014 0.0123 0.001 0.0052

