data_V9_O17_-_04-014-8495
#Copyright 2019 International Centre for Diffraction Data. All rights reserved.

_audit_creation_date                  2019-11-15
_audit_creation_method                'Generated by PDF-4+ 2020 4.20.0.1'

_chemical_name_systematic             'Vanadium Oxide'
_chemical_formula_moiety              'V9 O17'
_chemical_formula_sum                 'O17 V9'
_chemical_formula_weight              730.46

_cell_length_a                        5.418
_cell_length_b                        7.009
_cell_length_c                        45.238
_cell_angle_alpha                     39.3
_cell_angle_beta                      74.5
_cell_angle_gamma                     108.9
_cell_volume                          517.83
_cell_formula_units_Z                 2.00
_symmetry_cell_setting                triclinic
_symmetry_space_group_name_H-M        P-1
_symmetry_Int_Tables_number           2

loop_
_symmetry_equiv_pos_site_id
_symmetry_equiv_pos_as_xyz
1 x,y,z
2 -x,-y,-z

loop_
_atom_site_label
_atom_site_type_symbol
_atom_site_fract_x
_atom_site_fract_y
_atom_site_fract_z
_atom_site_U_iso_or_equiv
_atom_site_symmetry_multiplicity
_atom_site_Wyckoff_symbol
_atom_site_occupancy
V1 V 0.0 0.0 0.0249 . 2 i 1.0
V2 V 0.0 0.5 0.0249 . 2 i 1.0
V3 V 0.0 0.0 0.1436 . 2 i 1.0
V4 V 0.0 0.5 0.1436 . 2 i 1.0
V5 V 0.0 0.0 0.2624 . 2 i 1.0
V6 V 0.0 0.5 0.2624 . 2 i 1.0
V7 V 0.0 0.0 0.3812 . 2 i 1.0
V8 V 0.0 0.5 0.3812 . 2 i 1.0
V9 V 0.0 0.0 0.5 . 1 b 1.0
V10 V 0.0 0.5 0.5 . 1 g 1.0
O11 O 0.6999 0.3998 0.013 . 2 i 1.0
O12 O 0.3001 0.6002 0.0367 . 2 i 1.0
O13 O 0.6999 0.5 0.0605 . 2 i 1.0
O14 O 0.3001 0.5 0.108 . 2 i 1.0
O15 O 0.6999 0.3998 0.1318 . 2 i 1.0
O16 O 0.3001 0.6002 0.1554 . 2 i 1.0
O17 O 0.6999 0.5 0.1793 . 2 i 1.0
O18 O 0.3001 0.5 0.2268 . 2 i 1.0
O19 O 0.6999 0.3998 0.2506 . 2 i 1.0
O20 O 0.3001 0.6002 0.2743 . 2 i 1.0
O21 O 0.6999 0.5 0.2981 . 2 i 1.0
O22 O 0.3001 0.5 0.3456 . 2 i 1.0
O23 O 0.6999 0.3998 0.3694 . 2 i 1.0
O24 O 0.3001 0.6002 0.3931 . 2 i 1.0
O25 O 0.6999 0.5 0.4169 . 2 i 1.0
O26 O 0.3001 0.5 0.4644 . 2 i 1.0
O27 O 0.6999 0.3998 0.4882 . 2 i 1.0

