data_V5_O9_-_04-003-1727
#Copyright 2019 International Centre for Diffraction Data. All rights reserved.

_audit_creation_date                  2019-11-18
_audit_creation_method                'Generated by PDF-4+ 2020 4.20.0.1'

_chemical_name_systematic             'Vanadium Oxide'
_chemical_formula_moiety              'V5 O9'
_chemical_formula_sum                 'O9 V5'
_chemical_formula_weight              398.70

_cell_length_a                        5.467(1)
_cell_length_b                        7.007(1)
_cell_length_c                        8.735(1)
_cell_angle_alpha                     97.4
_cell_angle_beta                      112.31
_cell_angle_gamma                     109.11
_cell_volume                          279.98
_cell_formula_units_Z                 2.00
_symmetry_cell_setting                triclinic
_symmetry_space_group_name_H-M        P-1
_symmetry_Int_Tables_number           2

loop_
_symmetry_equiv_pos_site_id
_symmetry_equiv_pos_as_xyz
1 x,y,z
2 -x,-y,-z

loop_
_atom_site_label
_atom_site_type_symbol
_atom_site_fract_x
_atom_site_fract_y
_atom_site_fract_z
_atom_site_U_iso_or_equiv
_atom_site_symmetry_multiplicity
_atom_site_Wyckoff_symbol
_atom_site_occupancy
V1 V 0.0 0.5 0.0 . 1 c 1.0
V2 V 0.0 0.0 0.0 . 1 a 1.0
V3 V 0.54899 0.83275 0.19766 . 2 i 1.0
V4 V 0.57287 0.35132 0.21398 . 2 i 1.0
V5 V 0.13267 0.17133 0.41555 . 2 i 1.0
V6 V 0.14989 0.67757 0.42581 . 2 i 1.0
O7 O 0.649 0.8517 0.0265 . 2 i 1.0
O8 O 0.1671 0.8067 0.0809 . 2 i 1.0
O9 O 0.3941 0.5345 0.1379 . 2 i 1.0
O10 O 0.9217 0.4893 0.1937 . 2 i 1.0
O11 O 0.2164 0.1901 0.2449 . 2 i 1.0
O12 O 0.2713 0.8521 0.678 . 2 i 1.0
O13 O 0.9483 0.8653 0.3674 . 2 i 1.0
O14 O 0.4887 0.8014 0.4175 . 2 i 1.0
O15 O 0.7757 0.5379 0.4624 . 2 i 1.0

