data_V3_O5_-_04-007-0358
#Copyright 2019 International Centre for Diffraction Data. All rights reserved.

_audit_creation_date                  2019-11-15
_audit_creation_method                'Generated by PDF-4+ 2020 4.20.0.1'

_chemical_name_systematic             'Vanadium Oxide'
_chemical_formula_moiety              'V3 O5'
_chemical_formula_sum                 'O5 V3'
_chemical_formula_weight              232.82

_cell_length_a                        9.98
_cell_length_b                        5.03
_cell_length_c                        9.84
_cell_angle_alpha                     90
_cell_angle_beta                      138.8
_cell_angle_gamma                     90
_cell_volume                          325.37
_cell_formula_units_Z                 4.00
_symmetry_cell_setting                monoclinic
_symmetry_space_group_name_H-M        Cc
_symmetry_Int_Tables_number           9

loop_
_symmetry_equiv_pos_site_id
_symmetry_equiv_pos_as_xyz
1 x,y,z
2 x,-y,z+1/2
3 x+1/2,y+1/2,z
4 x+1/2,-y+1/2,z+1/2

loop_
_atom_site_label
_atom_site_type_symbol
_atom_site_fract_x
_atom_site_fract_y
_atom_site_fract_z
_atom_site_U_iso_or_equiv
_atom_site_symmetry_multiplicity
_atom_site_Wyckoff_symbol
_atom_site_occupancy
V1 V 0.088 0.25 0.464 . 4 a 1.0
V2 V 0.412 0.25 0.536 . 4 a 1.0
V3 V 0.0 0.75 0.25 . 4 a 1.0
O4 O 0.044 0.6 0.102 . 4 a 1.0
O5 O 0.139 0.1 0.311 . 4 a 1.0
O6 O 0.361 0.9 0.189 . 4 a 1.0
O7 O 0.456 0.4 0.398 . 4 a 1.0
O8 O 0.25 0.4 0.0 . 4 a 1.0

