data_O2_-_04-007-2179
#Copyright 2019 International Centre for Diffraction Data. All rights reserved.

_audit_creation_date                  2019-11-18
_audit_creation_method                'Generated by PDF-4+ 2020 4.20.0.1'

_chemical_name_systematic             Oxygen
_chemical_name_common                 '\b-O2, dioxygen'
_chemical_formula_moiety              O2
_chemical_formula_sum                 O2
_chemical_formula_weight              32.00
_chemical_melting_point               316.0

_cell_length_a                        2.8467(2)
_cell_length_b                        2.8467(2)
_cell_length_c                        10.2249(8)
_cell_angle_alpha                     90
_cell_angle_beta                      90
_cell_angle_gamma                     120
_cell_volume                          71.76
_cell_formula_units_Z                 3.00
_symmetry_cell_setting                rhombohedral
_symmetry_space_group_name_H-M        R-3m
_symmetry_Int_Tables_number           166

loop_
_symmetry_equiv_pos_site_id
_symmetry_equiv_pos_as_xyz
1 x,y,z
2 -x,-y,-z
3 -y,x-y,z
4 y,-x+y,-z
5 -x+y,-x,z
6 x-y,x,-z
7 -y,-x,z
8 y,x,-z
9 x,x-y,z
10 -x,-x+y,-z
11 -x+y,y,z
12 x-y,-y,-z
13 x+2/3,y+1/3,z+1/3
14 -x+2/3,-y+1/3,-z+1/3
15 -y+2/3,x-y+1/3,z+1/3
16 y+2/3,-x+y+1/3,-z+1/3
17 -x+y+2/3,-x+1/3,z+1/3
18 x-y+2/3,x+1/3,-z+1/3
19 -y+2/3,-x+1/3,z+1/3
20 y+2/3,x+1/3,-z+1/3
21 x+2/3,x-y+1/3,z+1/3
22 -x+2/3,-x+y+1/3,-z+1/3
23 -x+y+2/3,y+1/3,z+1/3
24 x-y+2/3,-y+1/3,-z+1/3
25 x+1/3,y+2/3,z+2/3
26 -x+1/3,-y+2/3,-z+2/3
27 -y+1/3,x-y+2/3,z+2/3
28 y+1/3,-x+y+2/3,-z+2/3
29 -x+y+1/3,-x+2/3,z+2/3
30 x-y+1/3,x+2/3,-z+2/3
31 -y+1/3,-x+2/3,z+2/3
32 y+1/3,x+2/3,-z+2/3
33 x+1/3,x-y+2/3,z+2/3
34 -x+1/3,-x+y+2/3,-z+2/3
35 -x+y+1/3,y+2/3,z+2/3
36 x-y+1/3,-y+2/3,-z+2/3

loop_
_atom_site_label
_atom_site_type_symbol
_atom_site_fract_x
_atom_site_fract_y
_atom_site_fract_z
_atom_site_U_iso_or_equiv
_atom_site_symmetry_multiplicity
_atom_site_Wyckoff_symbol
_atom_site_occupancy
O1 O 0.0 0.0 0.0577 0.04347 6 c 1.0

loop_
_atom_site_aniso_label
_atom_site_aniso_U_11
_atom_site_aniso_U_12
_atom_site_aniso_U_13
_atom_site_aniso_U_22
_atom_site_aniso_U_23
_atom_site_aniso_U_33
O1 0.05071 0.02536 0.0 0.05071 0.0 0.029

