data_V6_O11_-_04-008-7710
#Copyright 2019 International Centre for Diffraction Data. All rights reserved.

_audit_creation_date                  2019-11-15
_audit_creation_method                'Generated by PDF-4+ 2020 4.20.0.1'

_chemical_name_systematic             'Vanadium Oxide'
_chemical_formula_moiety              'V6 O11'
_chemical_formula_sum                 'O11 V6'
_chemical_formula_weight              481.64

_cell_length_a                        5.448
_cell_length_b                        6.998
_cell_length_c                        30.063
_cell_angle_alpha                     41
_cell_angle_beta                      72.5
_cell_angle_gamma                     108.9
_cell_volume                          340.09
_cell_formula_units_Z                 2.00
_symmetry_cell_setting                triclinic
_symmetry_space_group_name_H-M        P-1
_symmetry_Int_Tables_number           2

loop_
_symmetry_equiv_pos_site_id
_symmetry_equiv_pos_as_xyz
1 x,y,z
2 -x,-y,-z

loop_
_atom_site_label
_atom_site_type_symbol
_atom_site_fract_x
_atom_site_fract_y
_atom_site_fract_z
_atom_site_B_iso_or_equiv
_atom_site_symmetry_multiplicity
_atom_site_Wyckoff_symbol
_atom_site_occupancy
V1 V -0.00506 0.44815 0.06207 0.23 2 i 1.0
V2 V -0.0267 -0.07425 0.06734 0.19 2 i 1.0
V3 V -0.03621 0.45742 0.24248 0.31 2 i 1.0
V4 V -0.04519 -0.05395 0.24331 0.29 2 i 1.0
V5 V -0.02496 0.46771 0.41727 0.4 2 i 1.0
V6 V -0.01866 -0.02304 0.41532 0.35 2 i 1.0
O7 O 0.6939 0.4177 0.0328 0.29 2 i 1.0
O8 O 0.3196 0.556 0.06693 0.73 2 i 1.0
O9 O 0.6845 0.4672 0.1088 0.51 2 i 1.0
O10 O 0.3743 0.6208 0.14527 0.38 2 i 1.0
O11 O 0.6983 0.413 0.21149 0.42 2 i 1.0
O12 O 0.3137 0.589 0.2471 0.52 2 i 1.0
O13 O 0.6677 0.4465 0.29735 0.35 2 i 1.0
O14 O 0.3131 0.5328 0.3482 0.53 2 i 1.0
O15 O 0.7079 0.4271 0.38849 0.48 2 i 1.0
O16 O 0.3164 0.5962 0.42607 0.35 2 i 1.0
O17 O 0.6903 0.4721 0.47108 0.62 2 i 1.0

