data_(_O2_)_-_04-007-2776
#Copyright 2019 International Centre for Diffraction Data. All rights reserved.

_audit_creation_date                  2019-11-18
_audit_creation_method                'Generated by PDF-4+ 2020 4.20.0.1'

_chemical_name_systematic             Oxygen
_chemical_name_common                 '\g-O2, \g-( O2 )'
_chemical_formula_moiety              '( O2 )'
_chemical_formula_sum                 O2
_chemical_formula_weight              32.00
_chemical_melting_point               54.39999999999998

_cell_length_a                        6.78(2)
_cell_length_b                        6.78(2)
_cell_length_c                        6.78(2)
_cell_angle_alpha                     90
_cell_angle_beta                      90
_cell_angle_gamma                     90
_cell_volume                          311.67
_cell_formula_units_Z                 8.00
_symmetry_cell_setting                cubic
_symmetry_space_group_name_H-M        Pm-3n
_symmetry_Int_Tables_number           223

loop_
_symmetry_equiv_pos_site_id
_symmetry_equiv_pos_as_xyz
1 x,y,z
2 -x,-y,-z
3 z,x,y
4 -z,-x,-y
5 y,z,x
6 -y,-z,-x
7 x,-y,-z
8 -x,y,z
9 z,-x,-y
10 -z,x,y
11 y,-z,-x
12 -y,z,x
13 -x,y,-z
14 x,-y,z
15 -z,x,-y
16 z,-x,y
17 -y,z,-x
18 y,-z,x
19 -x,-y,z
20 x,y,-z
21 -z,-x,y
22 z,x,-y
23 -y,-z,x
24 y,z,-x
25 x+1/2,z+1/2,y+1/2
26 -x+1/2,-z+1/2,-y+1/2
27 y+1/2,x+1/2,z+1/2
28 -y+1/2,-x+1/2,-z+1/2
29 z+1/2,y+1/2,x+1/2
30 -z+1/2,-y+1/2,-x+1/2
31 x+1/2,-z+1/2,-y+1/2
32 -x+1/2,z+1/2,y+1/2
33 y+1/2,-x+1/2,-z+1/2
34 -y+1/2,x+1/2,z+1/2
35 z+1/2,-y+1/2,-x+1/2
36 -z+1/2,y+1/2,x+1/2
37 -x+1/2,z+1/2,-y+1/2
38 x+1/2,-z+1/2,y+1/2
39 -y+1/2,x+1/2,-z+1/2
40 y+1/2,-x+1/2,z+1/2
41 -z+1/2,y+1/2,-x+1/2
42 z+1/2,-y+1/2,x+1/2
43 -x+1/2,-z+1/2,y+1/2
44 x+1/2,z+1/2,-y+1/2
45 -y+1/2,-x+1/2,z+1/2
46 y+1/2,x+1/2,-z+1/2
47 -z+1/2,-y+1/2,x+1/2
48 z+1/2,y+1/2,-x+1/2

loop_
_atom_site_label
_atom_site_type_symbol
_atom_site_fract_x
_atom_site_fract_y
_atom_site_fract_z
_atom_site_U_iso_or_equiv
_atom_site_symmetry_multiplicity
_atom_site_Wyckoff_symbol
_atom_site_occupancy
O1 O 0.0436 0.0436 0.0436 . 16 i 0.25
O2 O 0.034 0.2516 0.4151 . 48 l 0.25

