data_Nb_O2_-_04-005-4690
#Copyright 2019 International Centre for Diffraction Data. All rights reserved.

_audit_creation_date                  2019-11-15
_audit_creation_method                'Generated by PDF-4+ 2020 4.20.0.1'

_chemical_name_systematic             'Niobium Oxide'
_chemical_name_common                 'niobium(IV) dioxide'
_chemical_formula_moiety              'Nb O2'
_chemical_formula_sum                 'Nb O2'
_chemical_formula_weight              124.90

_cell_length_a                        13.66(1)
_cell_length_b                        13.66(1)
_cell_length_c                        5.964(5)
_cell_angle_alpha                     90
_cell_angle_beta                      90
_cell_angle_gamma                     90
_cell_volume                          1112.86
_cell_formula_units_Z                 32.00
_symmetry_cell_setting                tetragonal
_symmetry_space_group_name_H-M        I41/a
_symmetry_Int_Tables_number           88

loop_
_symmetry_equiv_pos_site_id
_symmetry_equiv_pos_as_xyz
1 x,y,z
2 -x,-y,-z
3 -x+1/2,-y,z+1/2
4 x+1/2,y,-z+1/2
5 -y+3/4,x+1/4,z+1/4
6 y+1/4,-x+3/4,-z+3/4
7 y+3/4,-x+3/4,z+3/4
8 -y+1/4,x+1/4,-z+1/4
9 x+1/2,y+1/2,z+1/2
10 -x+1/2,-y+1/2,-z+1/2
11 -x,-y+1/2,z
12 x,y+1/2,-z
13 -y+1/4,x+3/4,z+3/4
14 y+3/4,-x+1/4,-z+1/4
15 y+1/4,-x+1/4,z+1/4
16 -y+3/4,x+3/4,-z+3/4

loop_
_atom_site_label
_atom_site_type_symbol
_atom_site_fract_x
_atom_site_fract_y
_atom_site_fract_z
_atom_site_B_iso_or_equiv
_atom_site_symmetry_multiplicity
_atom_site_Wyckoff_symbol
_atom_site_occupancy
Nb1 Nb 0.1155 0.1249 0.4746 4.20463 16 f 1.0
Nb2 Nb 0.1356 0.125 0.0267 3.68215 16 f 1.0
O3 O 0.9866 0.1262 -0.0046 4.35389 16 f 1.0
O4 O 0.9749 0.1252 0.5002 4.47829 16 f 1.0
O5 O 0.2739 0.1245 0.9998 3.60752 16 f 1.0
O6 O 0.2631 0.1241 0.5043 3.60752 16 f 1.0

loop_
_atom_site_aniso_label
_atom_site_aniso_B_11
_atom_site_aniso_B_12
_atom_site_aniso_B_13
_atom_site_aniso_B_22
_atom_site_aniso_B_23
_atom_site_aniso_B_33
Nb1 0.59711 0.0746388 0.0 1.11958 -0.0325875 10.8973
Nb2 0.373194 0.0 0.065175 1.79133 -0.228113 8.88201
O3 0.671749 0.522471 -0.2607 2.16452 -0.195525 10.2255
O4 1.71669 0.373194 0.13035 1.79133 0.2607 9.92695
O5 1.49278 0.59711 -0.13035 2.01525 -0.2607 7.3146
O6 1.26886 0.821026 -0.13035 1.26886 0.195525 8.2849

