data_Nb2_O5_-_00-016-0053
#Copyright 2019 International Centre for Diffraction Data. All rights reserved.

_audit_creation_date                  2019-11-18
_audit_creation_method                'Generated by PDF-4+ 2020 4.20.0.1'

_chemical_name_systematic             'Niobium Oxide'
_chemical_formula_moiety              'Nb2 O5'
_chemical_formula_sum                 'Nb2 O5'
_chemical_formula_weight              265.81

_cell_length_a                        21.16
_cell_length_b                        3.822
_cell_length_c                        19.35
_cell_angle_alpha                     90
_cell_angle_beta                      119.83
_cell_angle_gamma                     90
_cell_volume                          1357.76
_cell_formula_units_Z                 14.00
_symmetry_cell_setting                monoclinic
_symmetry_space_group_name_H-M        P121
_symmetry_Int_Tables_number           3

loop_
_symmetry_equiv_pos_site_id
_symmetry_equiv_pos_as_xyz
1 x,y,z
2 -x,y,-z

loop_
_atom_site_label
_atom_site_type_symbol
_atom_site_fract_x
_atom_site_fract_y
_atom_site_fract_z
_atom_site_U_iso_or_equiv
_atom_site_symmetry_multiplicity
_atom_site_Wyckoff_symbol
_atom_site_occupancy
Nb1 Nb 0.0 0.25 0.0 . 1 a 1.0
Nb2 Nb 0.5 0.0 0.5 . 1 d 1.0
Nb3 Nb 0.1623 0.0 0.0 . 2 e 1.0
Nb4 Nb 0.2354 0.0 0.231 . 2 e 1.0
Nb5 Nb 0.3017 0.0 0.4544 . 2 e 1.0
Nb6 Nb 0.3609 0.0 0.0447 . 2 e 1.0
Nb7 Nb 0.4331 0.0 0.2776 . 2 e 1.0
Nb8 Nb 0.5635 0.0 0.0936 . 2 e 1.0
Nb9 Nb 0.6303 0.0 0.3239 . 2 e 1.0
Nb10 Nb 0.0938 0.5 0.2007 . 2 e 1.0
Nb11 Nb 0.1598 0.5 0.4245 . 2 e 1.0
Nb12 Nb 0.7028 0.5 0.1237 . 2 e 1.0
Nb13 Nb 0.7701 0.5 0.3513 . 2 e 1.0
Nb14 Nb -0.101 0.5 0.1635 . 2 e 1.0
Nb15 Nb 0.965 0.5 0.3891 . 2 e 1.0
O16 O 0.0 0.5 0.5 . 1 b 1.0
O17 O 0.5 0.5 0.5 . 1 d 1.0
O18 O 0.131 0.0 0.204 . 2 e 1.0
O19 O 0.2 0.0 0.443 . 2 e 1.0
O20 O 0.194 0.0 0.114 . 2 e 1.0
O21 O 0.261 0.0 0.341 . 2 e 1.0
O22 O 0.26 0.0 0.014 . 2 e 1.0
O23 O 0.33 0.0 0.249 . 2 e 1.0
O24 O 0.398 0.0 0.48 . 2 e 1.0
O25 O 0.407 0.0 0.155 . 2 e 1.0
O26 O 0.461 0.0 0.384 . 2 e 1.0
O27 O 0.46 0.0 0.037 . 2 e 1.0
O28 O 0.535 0.0 0.295 . 2 e 1.0
O29 O 0.59 0.0 0.198 . 2 e 1.0
O30 O 0.663 0.0 0.428 . 2 e 1.0
O31 O 0.657 0.0 0.096 . 2 e 1.0
O32 O 0.743 0.0 0.34 . 2 e 1.0
O33 O -0.117 0.0 0.128 . 2 e 1.0
O34 O 0.944 0.0 0.028 . 2 e 1.0
O35 O 0.965 0.0 0.389 . 2 e 1.0
O36 O 0.056 0.5 0.075 . 2 e 1.0
O37 O 0.068 0.5 0.406 . 2 e 1.0
O38 O 0.135 0.5 0.311 . 2 e 1.0
O39 O 0.194 0.5 0.215 . 2 e 1.0
O40 O 0.266 0.5 0.447 . 2 e 1.0
O41 O 0.355 0.5 0.01 . 2 e 1.0
O42 O 0.426 0.5 0.241 . 2 e 1.0
O43 O 0.594 0.5 0.091 . 2 e 1.0
O44 O 0.658 0.5 0.312 . 2 e 1.0
O45 O 0.732 0.5 0.231 . 2 e 1.0
O46 O 0.799 0.5 0.455 . 2 e 1.0
O47 O 0.793 0.5 0.13 . 2 e 1.0
O48 O -0.138 0.5 0.365 . 2 e 1.0
O49 O 0.845 0.5 0.029 . 2 e 1.0
O50 O 0.933 0.5 0.265 . 2 e 1.0
O51 O 0.0 0.5 0.176 . 2 e 1.0

