data_Nb4_O5_-_04-007-2499
#Copyright 2019 International Centre for Diffraction Data. All rights reserved.

_audit_creation_date                  2019-11-12
_audit_creation_method                'Generated by PDF-4+ 2020 4.20.0.1'

_chemical_name_systematic             'Niobium Oxide'
_chemical_name_common                 'tetraniobium pentaoxide'
_chemical_formula_moiety              'Nb4 O5'
_chemical_formula_sum                 'Nb4 O5'
_chemical_formula_weight              451.62

_cell_length_a                        6.651(1)
_cell_length_b                        6.651(1)
_cell_length_c                        4.814(1)
_cell_angle_alpha                     90
_cell_angle_beta                      90
_cell_angle_gamma                     90
_cell_volume                          212.95
_cell_formula_units_Z                 2.00
_symmetry_cell_setting                tetragonal
_symmetry_space_group_name_H-M        P42/nmc
_symmetry_Int_Tables_number           137

loop_
_symmetry_equiv_pos_site_id
_symmetry_equiv_pos_as_xyz
1 x,y,z
2 -x,-y,-z
3 -x+1/2,y,z
4 x+1/2,-y,-z
5 x,-y+1/2,z
6 -x,y+1/2,-z
7 -x+1/2,-y+1/2,z
8 x+1/2,y+1/2,-z
9 y,x,z+1/2
10 -y,-x,-z+1/2
11 -y+1/2,x,z+1/2
12 y+1/2,-x,-z+1/2
13 y,-x+1/2,z+1/2
14 -y,x+1/2,-z+1/2
15 -y+1/2,-x+1/2,z+1/2
16 y+1/2,x+1/2,-z+1/2

loop_
_atom_site_label
_atom_site_type_symbol
_atom_site_fract_x
_atom_site_fract_y
_atom_site_fract_z
_atom_site_B_iso_or_equiv
_atom_site_symmetry_multiplicity
_atom_site_Wyckoff_symbol
_atom_site_occupancy
Nb1 Nb 0.25 0.04505 0.45548 0.4 8 g 1.0
O2 O 0.25 0.75 0.25 0.62 2 a 1.0
O3 O -0.0367 0.0367 0.25 0.22 8 f 1.0

