data_V8_O15_-_04-014-8494
#Copyright 2019 International Centre for Diffraction Data. All rights reserved.

_audit_creation_date                  2019-11-12
_audit_creation_method                'Generated by PDF-4+ 2020 4.20.0.1'

_chemical_name_systematic             'Vanadium Oxide'
_chemical_formula_moiety              'V8 O15'
_chemical_formula_sum                 'O15 V8'
_chemical_formula_weight              647.52

_cell_length_a                        5.43
_cell_length_b                        6.99
_cell_length_c                        40.765
_cell_angle_alpha                     40.89
_cell_angle_beta                      72.64
_cell_angle_gamma                     109
_cell_volume                          455.38
_cell_formula_units_Z                 2.00
_symmetry_cell_setting                triclinic
_symmetry_space_group_name_H-M        P-1
_symmetry_Int_Tables_number           2

loop_
_symmetry_equiv_pos_site_id
_symmetry_equiv_pos_as_xyz
1 x,y,z
2 -x,-y,-z

loop_
_atom_site_label
_atom_site_type_symbol
_atom_site_fract_x
_atom_site_fract_y
_atom_site_fract_z
_atom_site_U_iso_or_equiv
_atom_site_symmetry_multiplicity
_atom_site_Wyckoff_symbol
_atom_site_occupancy
V1 V 0.0 0.0 0.0386 . 2 i 1.0
V2 V 0.0 0.5 0.0386 . 2 i 1.0
V3 V 0.0 0.0 0.1704 . 2 i 1.0
V4 V 0.0 0.5 0.1704 . 2 i 1.0
V5 V 0.0 0.0 0.3023 . 2 i 1.0
V6 V 0.0 0.5 0.3023 . 2 i 1.0
V7 V 0.0 0.0 0.4341 . 2 i 1.0
V8 V 0.0 0.5 0.4341 . 2 i 1.0
O9 O 0.6999 0.3998 0.0255 . 2 i 1.0
O10 O 0.3001 0.6002 0.0518 . 2 i 1.0
O11 O 0.6999 0.5 0.0782 . 2 i 1.0
O12 O 0.3001 0.5 0.1309 . 2 i 1.0
O13 O 0.6999 0.3998 0.1573 . 2 i 1.0
O14 O 0.3001 0.6002 0.1836 . 2 i 1.0
O15 O 0.6999 0.5 0.21 . 2 i 1.0
O16 O 0.3001 0.5 0.2627 . 2 i 1.0
O17 O 0.6999 0.3998 0.2891 . 2 i 1.0
O18 O 0.3001 0.6002 0.3154 . 2 i 1.0
O19 O 0.6999 0.5 0.3418 . 2 i 1.0
O20 O 0.3001 0.5 0.3945 . 2 i 1.0
O21 O 0.6999 0.3998 0.4209 . 2 i 1.0
O22 O 0.3001 0.6002 0.4472 . 2 i 1.0
O23 O 0.6999 0.5 0.4736 . 2 i 1.0

