data_Mn3_O4_-_04-007-2614
#Copyright 2019 International Centre for Diffraction Data. All rights reserved.

_audit_creation_date                  2019-11-12
_audit_creation_method                'Generated by PDF-4+ 2020 4.20.0.1'

_chemical_name_systematic             'Manganese Oxide'
_chemical_name_common                 '\b-Mn3 O4'
_chemical_formula_moiety              'Mn3 O4'
_chemical_formula_sum                 'Mn3 O4'
_chemical_formula_weight              228.81

_cell_length_a                        9.5564(3)
_cell_length_b                        9.7996(3)
_cell_length_c                        3.0240(1)
_cell_angle_alpha                     90
_cell_angle_beta                      90
_cell_angle_gamma                     90
_cell_volume                          283.19
_cell_formula_units_Z                 4.00
_symmetry_cell_setting                orthorhombic
_symmetry_space_group_name_H-M        Pmab
_symmetry_Int_Tables_number           57

loop_
_symmetry_equiv_pos_site_id
_symmetry_equiv_pos_as_xyz
1 x,y,z
2 -x,-y,-z
3 x+1/2,-y,-z
4 -x+1/2,y,z
5 -x,-y+1/2,z
6 x,y+1/2,-z
7 -x+1/2,y+1/2,-z
8 x+1/2,-y+1/2,z

loop_
_atom_site_label
_atom_site_type_symbol
_atom_site_fract_x
_atom_site_fract_y
_atom_site_fract_z
_atom_site_B_iso_or_equiv
_atom_site_symmetry_multiplicity
_atom_site_Wyckoff_symbol
_atom_site_occupancy
Mn1 Mn 0.75 0.1461 0.6845 0.55 4 d 1.0
Mn2 Mn 0.0696 0.1147 0.2034 0.25 8 e 1.0
O3 O 0.0 0.25 0.6204 0.18 4 c 1.0
O4 O 0.25 0.1999 0.1899 0.18 4 d 1.0
O5 O 0.1112 0.9694 0.7956 0.18 8 e 1.0

