data_V4_O9_-_00-024-1391
#Copyright 2019 International Centre for Diffraction Data. All rights reserved.

_audit_creation_date                  2019-11-12
_audit_creation_method                'Generated by PDF-4+ 2020 4.20.0.1'

_chemical_name_systematic             'Vanadium Oxide'
_chemical_formula_moiety              'V4 O9'
_chemical_formula_sum                 'O9 V4'
_chemical_formula_weight              347.76

_cell_length_a                        17.926(4)
_cell_length_b                        3.631(1)
_cell_length_c                        9.396(2)
_cell_angle_alpha                     90
_cell_angle_beta                      90
_cell_angle_gamma                     90
_cell_volume                          611.58
_cell_formula_units_Z                 4.00
_symmetry_cell_setting                orthorhombic
_symmetry_space_group_name_H-M        Pnma
_symmetry_Int_Tables_number           62

loop_
_symmetry_equiv_pos_site_id
_symmetry_equiv_pos_as_xyz
1 x,y,z
2 -x,-y,-z
3 x+1/2,-y+1/2,-z+1/2
4 -x+1/2,y+1/2,z+1/2
5 -x,y+1/2,-z
6 x,-y+1/2,z
7 -x+1/2,-y,z+1/2
8 x+1/2,y,-z+1/2

loop_
_atom_site_label
_atom_site_type_symbol
_atom_site_fract_x
_atom_site_fract_y
_atom_site_fract_z
_atom_site_B_iso_or_equiv
_atom_site_symmetry_multiplicity
_atom_site_Wyckoff_symbol
_atom_site_occupancy
V1 V -0.0059 0.25 0.2287 1.16 4 c 1.0
V2 V 0.078 0.25 0.5385 1.26 4 c 1.0
V3 V 0.1675 0.25 0.2053 1.21 4 c 1.0
V4 V 0.3169 0.25 0.4566 1.13 4 c 1.0
O5 O -0.0233 0.75 0.274 3.06 4 c 1.0
O6 O 0.048 0.75 0.5477 2.67 4 c 1.0
O7 O 0.1543 0.75 0.1579 2.06 4 c 1.0
O8 O 0.2969 0.75 0.5108 1.82 4 c 1.0
O9 O 0.0879 0.25 0.3401 0.65 4 c 1.0
O10 O 0.0435 0.25 0.0833 2.7 4 c 1.0
O11 O 0.3924 0.25 0.3551 1.92 4 c 1.0
O12 O 0.1639 0.25 0.5843 1.8 4 c 1.0
O13 O 0.2393 0.25 0.3124 2.02 4 c 1.0

