data_Mn2_O3_-_00-024-0508
#Copyright 2019 International Centre for Diffraction Data. All rights reserved.

_audit_creation_date                  2019-11-12
_audit_creation_method                'Generated by PDF-4+ 2020 4.20.0.1'

_chemical_name_systematic             'Manganese Oxide'
_chemical_name_common                 partridgeite
_chemical_formula_moiety              'Mn2 O3'
_chemical_formula_sum                 'Mn2 O3'
_chemical_formula_weight              157.87

_cell_length_a                        9.4157(3)
_cell_length_b                        9.4233(3)
_cell_length_c                        9.4047(3)
_cell_angle_alpha                     90
_cell_angle_beta                      90
_cell_angle_gamma                     90
_cell_volume                          834.56
_cell_formula_units_Z                 16.00
_symmetry_cell_setting                orthorhombic
_symmetry_space_group_name_H-M        Pcab
_symmetry_Int_Tables_number           61

loop_
_symmetry_equiv_pos_site_id
_symmetry_equiv_pos_as_xyz
1 x,y,z
2 -x,-y,-z
3 x+1/2,-y,-z+1/2
4 -x+1/2,y,z+1/2
5 -x,-y+1/2,z+1/2
6 x,y+1/2,-z+1/2
7 -x+1/2,y+1/2,-z
8 x+1/2,-y+1/2,z

loop_
_atom_site_label
_atom_site_type_symbol
_atom_site_fract_x
_atom_site_fract_y
_atom_site_fract_z
_atom_site_B_iso_or_equiv
_atom_site_symmetry_multiplicity
_atom_site_Wyckoff_symbol
_atom_site_occupancy
Mn1 Mn 0.0 0.0 0.0 0.3359 4 a 1.0
Mn2 Mn 0.0 0.0 0.5 0.4187 4 b 1.0
Mn3 Mn 0.28479 0.25253 -0.0059 0.58661 8 c 1.0
Mn4 Mn 0.00462 0.28507 0.24564 0.58895 8 c 1.0
Mn5 Mn 0.25301 0.0013 0.28533 0.60332 8 c 1.0
O6 O 0.13299 -0.08466 0.1503 0.6648 8 c 1.0
O7 O 0.14435 0.12988 -0.08507 0.70263 8 c 1.0
O8 O -0.08038 0.14693 0.12412 0.61847 8 c 1.0
O9 O -0.37447 0.41757 -0.35569 0.57848 8 c 1.0
O10 O -0.35081 -0.37238 0.41947 0.64941 8 c 1.0
O11 O 0.41306 -0.35285 -0.36571 0.6232 8 c 1.0

loop_
_atom_site_aniso_label
_atom_site_aniso_B_11
_atom_site_aniso_B_12
_atom_site_aniso_B_13
_atom_site_aniso_B_22
_atom_site_aniso_B_23
_atom_site_aniso_B_33
Mn1 0.340436 0.0141963 0.0779255 0.34809 0.0141797 0.319159
Mn2 0.450369 0.0425889 0.0425048 0.451096 0.0319044 0.354621
Mn3 0.475192 -0.0177454 0.0672993 0.554102 -0.212696 0.73052
Mn4 0.695058 -0.0248435 -0.233777 0.515031 0.00708986 0.556755
Mn5 0.57094 -0.262632 -0.0141683 0.852465 0.0 0.386537
O6 0.641864 -0.166806 -0.10272 0.891537 -0.191426 0.461008
O7 0.503562 -0.0709815 -0.138141 0.887985 -0.173701 0.716335
O8 0.70215 -0.00354907 -0.201898 0.454648 -0.116983 0.698604
O9 0.638318 -0.294573 -0.145225 0.838258 -0.0673536 0.258873
O10 0.457461 0.0851778 0.0247945 0.84181 -0.350948 0.648957
O11 0.524839 -0.0248435 -0.219608 0.461752 0.0283594 0.883007

