data_V4_O7_-_04-007-0436
#Copyright 2019 International Centre for Diffraction Data. All rights reserved.

_audit_creation_date                  2019-11-12
_audit_creation_method                'Generated by PDF-4+ 2020 4.20.0.1'

_chemical_name_systematic             'Vanadium Oxide'
_chemical_formula_moiety              'V4 O7'
_chemical_formula_sum                 'O7 V4'
_chemical_formula_weight              315.76

_cell_length_a                        5.503(1)
_cell_length_b                        6.997(2)
_cell_length_c                        12.256(2)
_cell_angle_alpha                     94.86(2)
_cell_angle_beta                      95.17(1)
_cell_angle_gamma                     109.39(1)
_cell_volume                          440.02
_cell_formula_units_Z                 2.00
_symmetry_cell_setting                triclinic
_symmetry_space_group_name_H-M        A-1
_symmetry_Int_Tables_number           2

loop_
_symmetry_equiv_pos_site_id
_symmetry_equiv_pos_as_xyz
1 x,y,z
2 -x,-y,-z
3 x,y+1/2,z+1/2
4 -x,-y+1/2,-z+1/2

loop_
_atom_site_label
_atom_site_type_symbol
_atom_site_fract_x
_atom_site_fract_y
_atom_site_fract_z
_atom_site_B_iso_or_equiv
_atom_site_symmetry_multiplicity
_atom_site_Wyckoff_symbol
_atom_site_occupancy
V1 V 0.2022 0.1404 0.06216 0.22941 4 i 1.0
V2 V 0.2362 0.654 0.06961 0.21448 4 i 1.0
V3 V 0.6859 0.4406 0.19785 0.21731 4 i 1.0
V4 V 0.6797 0.9401 0.19961 0.21041 4 i 1.0
O5 O 0.1072 0.8538 0.0136 0.2311 4 i 1.0
O6 O 0.5929 0.7927 0.0466 0.28715 4 i 1.0
O7 O 0.8574 0.4935 0.0861 0.35923 4 i 1.0
O8 O 0.3312 0.4349 0.1373 0.22195 4 i 1.0
O9 O 0.5244 0.1453 0.1641 0.28498 4 i 1.0
O10 O 0.0415 0.0663 0.1944 0.23362 4 i 1.0
O11 O 0.2956 0.7931 0.2244 0.24181 4 i 1.0

loop_
_atom_site_aniso_label
_atom_site_aniso_B_11
_atom_site_aniso_B_12
_atom_site_aniso_B_13
_atom_site_aniso_B_22
_atom_site_aniso_B_23
_atom_site_aniso_B_33
V1 0.328832 0.148431 0.0224594 0.343304 0.00634899 0.0381869
V2 0.286402 0.107949 0.00998197 0.308974 0.0539664 0.0562196
V3 0.275794 0.107949 0.0623873 0.343304 0.0285705 0.0434907
V4 0.297009 0.107949 0.0573963 0.291809 0.0412684 0.0583411
O5 0.413692 0.175418 0.0 0.223148 -0.12698 0.0742523
O6 0.424299 0.175418 0.0998197 0.411965 0.031745 0.0636449
O7 0.445514 0.0809621 0.0998197 0.532122 0.0634899 0.0530374
O8 0.307617 0.188912 0.0249549 0.343304 -0.031745 0.0636449
O9 0.456121 0.161924 0.0 0.343304 0.0 0.0636449
O10 0.222757 0.148431 0.0748648 0.480626 0.158725 0.0530374
O11 0.339439 0.0269874 0.0998197 0.274643 0.0634899 0.0742523

