data_04-012-7337
#Copyright 2021 International Centre for Diffraction Data. All rights reserved.

_audit_creation_date                  2021-12-16
_audit_creation_method                'Generated by PDF-4+ 2022 4.22.0.2'

_chemical_name_systematic             'Iron Vanadium Oxide'
_chemical_formula_moiety              'V0.75 Fe0.25 O2'
_chemical_formula_sum                 'Fe0.25 O2 V0.75'
_chemical_formula_weight              84.17

_cell_length_a                        12.129(3)
_cell_length_b                        3.679(1)
_cell_length_c                        6.547(2)
_cell_angle_alpha                     90
_cell_angle_beta                      106.85
_cell_angle_gamma                     90
_cell_formula_units_Z                 8
_cell_volume                          279.60
_symmetry_cell_setting                monoclinic
_symmetry_space_group_name_H-M        C2/m
_symmetry_Int_Tables_number           12

loop_
_symmetry_equiv_pos_site_id
_symmetry_equiv_pos_as_xyz
1 x,y,z
2 -x,-y,-z
3 x,-y,z
4 -x,y,-z
5 x+1/2,y+1/2,z
6 -x+1/2,-y+1/2,-z
7 x+1/2,-y+1/2,z
8 -x+1/2,y+1/2,-z

loop_
_atom_site_label
_atom_site_type_symbol
_atom_site_fract_x
_atom_site_fract_y
_atom_site_fract_z
_atom_site_B_iso_or_equiv
_atom_site_symmetry_multiplicity
_atom_site_Wyckoff_symbol
_atom_site_occupancy
V1 V 0.30749 0.0 0.72232 0.66573 4 i 0.75
Fe2 Fe 0.30749 0.0 0.72232 0.66573 4 i 0.25
V3 V 0.39847 0.0 0.30474 0.80922 4 i 0.75
Fe4 Fe 0.39847 0.0 0.30474 0.80922 4 i 0.25
O5 O 0.3678 0.0 0.9882 1.10958 4 i 1.0
O6 O 0.2323 0.0 0.3438 0.8641 4 i 1.0
O7 O 0.4404 0.0 0.6308 0.8705 4 i 1.0
O8 O 0.1389 0.0 0.7108 0.60595 4 i 1.0

loop_
_atom_site_aniso_label
_atom_site_aniso_B_11
_atom_site_aniso_B_12
_atom_site_aniso_B_13
_atom_site_aniso_B_22
_atom_site_aniso_B_23
_atom_site_aniso_B_33
V1 0.658 0.0 0.24 0.47 0.0 0.88
Fe2 0.658 0.0 0.24 0.47 0.0 0.88
V3 0.566 0.0 0.29 0.574 0.0 1.3
Fe4 0.566 0.0 0.29 0.574 0.0 1.3
O5 1.2 0.0 0.2 1.25 0.0 0.82
O6 0.86 0.0 0.32 0.655 0.0 1.1
O7 0.86 0.0 0.3 1.0 0.0 0.79
O8 0.81 0.0 0.38 0.0823 0.0 1.0

