data_04-011-5444
#Copyright 2021 International Centre for Diffraction Data. All rights reserved.

_audit_creation_date                  2021-12-16
_audit_creation_method                'Generated by PDF-4+ 2022 4.22.0.2'

_chemical_name_systematic             'Copper Vanadium Iron Oxide'
_chemical_formula_moiety              'Cu6 V6 Fe0.9 O19'
_chemical_formula_sum                 'Cu6 Fe0.9 O19 V6'
_chemical_formula_weight              1041.17

_cell_length_a                        12.9399(8)
_cell_length_b                        12.9399(8)
_cell_length_c                        7.1275(3)
_cell_angle_alpha                     90
_cell_angle_beta                      90
_cell_angle_gamma                     120
_cell_formula_units_Z                 3
_cell_volume                          1033.55
_symmetry_cell_setting                rhombohedral
_symmetry_space_group_name_H-M        R-3
_symmetry_Int_Tables_number           148

loop_
_symmetry_equiv_pos_site_id
_symmetry_equiv_pos_as_xyz
1 x,y,z
2 -x,-y,-z
3 -y,x-y,z
4 y,-x+y,-z
5 -x+y,-x,z
6 x-y,x,-z
7 x+2/3,y+1/3,z+1/3
8 -x+2/3,-y+1/3,-z+1/3
9 -y+2/3,x-y+1/3,z+1/3
10 y+2/3,-x+y+1/3,-z+1/3
11 -x+y+2/3,-x+1/3,z+1/3
12 x-y+2/3,x+1/3,-z+1/3
13 x+1/3,y+2/3,z+2/3
14 -x+1/3,-y+2/3,-z+2/3
15 -y+1/3,x-y+2/3,z+2/3
16 y+1/3,-x+y+2/3,-z+2/3
17 -x+y+1/3,-x+2/3,z+2/3
18 x-y+1/3,x+2/3,-z+2/3

loop_
_atom_site_label
_atom_site_type_symbol
_atom_site_fract_x
_atom_site_fract_y
_atom_site_fract_z
_atom_site_U_iso_or_equiv
_atom_site_symmetry_multiplicity
_atom_site_Wyckoff_symbol
_atom_site_occupancy
Cu1 Cu 0.0419 0.7627 0.0997 0.0155 18 f 1.0
Fe2 Fe 0.0 0.0 0.0 0.01002 3 a 0.9
V3 V 0.1552 0.0204 0.3292 0.00807 18 f 1.0
O4 O 0.4801 0.5768 0.1699 0.0091 18 f 1.0
O5 O 0.4566 0.6837 0.4823 0.00938 18 f 1.0
O6 O 0.0 0.0 0.5 0.00754 3 b 1.0
O7 O 0.598 0.7009 0.8546 0.01139 18 f 1.0

loop_
_atom_site_aniso_label
_atom_site_aniso_U_11
_atom_site_aniso_U_12
_atom_site_aniso_U_13
_atom_site_aniso_U_22
_atom_site_aniso_U_23
_atom_site_aniso_U_33
Cu1 0.0164 0.0109 -5.0E-4 0.0152 0.0 0.0189
Fe2 0.0111 0.0055 0.0 0.0111 0.0 0.0078
V3 0.0072 0.0043 4.0E-4 0.0091 1.0E-4 0.0082
O4 0.0091 0.0068 0.0022 0.0106 0.0018 0.0101
O5 0.0083 0.004 0.0 0.0096 -2.0E-4 0.0096
O6 0.0079 0.004 0.0 0.007 0.0 0.0081
O7 0.0111 0.008 0.0015 0.0157 -5.0E-4 0.0091

