data_04-011-9703
#Copyright 2021 International Centre for Diffraction Data. All rights reserved.

_audit_creation_date                  2021-12-16
_audit_creation_method                'Generated by PDF-4+ 2022 4.22.0.2'

_chemical_name_systematic             'Copper Vanadium Oxide'
_chemical_name_common                 '\g-Cu2 ( V2 O7 )'
_chemical_formula_moiety              'Cu2 ( V2 O7 )'
_chemical_formula_sum                 'Cu2 O7 V2'
_chemical_formula_weight              340.97

_cell_length_a                        5.0873(10)
_cell_length_b                        5.8233(11)
_cell_length_c                        9.4020(18)
_cell_angle_alpha                     99.780(3)
_cell_angle_beta                      97.253(3)
_cell_angle_gamma                     97.202(3)
_cell_formula_units_Z                 2
_cell_volume                          269.20
_symmetry_cell_setting                triclinic
_symmetry_space_group_name_H-M        P-1
_symmetry_Int_Tables_number           2

loop_
_symmetry_equiv_pos_site_id
_symmetry_equiv_pos_as_xyz
1 x,y,z
2 -x,-y,-z

loop_
_atom_site_label
_atom_site_type_symbol
_atom_site_fract_x
_atom_site_fract_y
_atom_site_fract_z
_atom_site_U_iso_or_equiv
_atom_site_symmetry_multiplicity
_atom_site_Wyckoff_symbol
_atom_site_occupancy
Cu1 Cu 0.26344 0.15492 0.51698 0.01357 2 i 1.0
Cu2 Cu 0.2809 0.14584 0.00655 0.01251 2 i 1.0
V3 V 0.16373 -0.32508 0.21877 0.00967 2 i 1.0
V4 V 0.28516 -0.26957 0.69728 0.00926 2 i 1.0
O5 O 0.0885 -0.1078 0.6023 0.01241 2 i 1.0
O6 O 0.4145 -0.1774 0.3498 0.01452 2 i 1.0
O7 O 0.0486 -0.1293 0.1195 0.01379 2 i 1.0
O8 O 0.3846 -0.1248 0.8774 0.01231 2 i 1.0
O9 O 0.1051 -0.555 0.6891 0.0147 2 i 1.0
O10 O 0.5498 -0.3136 0.6176 0.01292 2 i 1.0
O11 O 0.2637 -0.5429 0.1096 0.01939 2 i 1.0

loop_
_atom_site_aniso_label
_atom_site_aniso_U_11
_atom_site_aniso_U_12
_atom_site_aniso_U_13
_atom_site_aniso_U_22
_atom_site_aniso_U_23
_atom_site_aniso_U_33
Cu1 0.0094 -2.5E-4 -5.0E-4 0.0164 6.25E-5 0.0128
Cu2 0.0121 0.00474 -0.0014 0.0123 -8.9E-6 0.0122
V3 0.0095 0.0015 6.0E-4 0.0095 1.3E-5 0.0092
V4 0.0094 0.001 6.0E-4 0.009 1.4E-5 0.0085
O5 0.01 0.0018 3.0E-4 0.012 5.4E-5 0.014
O6 0.012 8.0E-4 -0.0028 0.014 2.8E-5 0.015
O7 0.012 0.0029 -7.0E-4 0.014 4.4E-5 0.014
O8 0.012 0.0048 -0.0016 0.013 -8.0E-6 0.011
O9 0.015 2.0E-4 0.0035 0.013 3.3E-5 0.015
O10 0.012 0.0021 0.0021 0.012 4.3E-5 0.014
O11 0.022 0.0093 8.0E-4 0.018 -1.9E-5 0.018

