data_04-023-9404
#Copyright 2021 International Centre for Diffraction Data. All rights reserved.

_audit_creation_date                  2021-12-16
_audit_creation_method                'Generated by PDF-4+ 2022 4.22.0.2'

_chemical_name_systematic             'Iron Oxide'
_chemical_name_common                 '\q-Fe2 O3'
_chemical_formula_moiety              'Fe2 O3'
_chemical_formula_sum                 'Fe2 O3'
_chemical_formula_weight              159.69

_cell_length_a                        6.524(9)
_cell_length_b                        4.702(3)
_cell_length_c                        4.603(7)
_cell_angle_alpha                     90
_cell_angle_beta                      90
_cell_angle_gamma                     90
_cell_formula_units_Z                 4
_cell_volume                          141.20
_symmetry_cell_setting                orthorhombic
_symmetry_space_group_name_H-M        Aba2
_symmetry_Int_Tables_number           41

loop_
_symmetry_equiv_pos_site_id
_symmetry_equiv_pos_as_xyz
1 x,y,z
2 -x,-y,z
3 -x+1/2,y+1/2,z
4 x+1/2,-y+1/2,z
5 x,y+1/2,z+1/2
6 -x,-y+1/2,z+1/2
7 -x+1/2,y,z+1/2
8 x+1/2,-y,z+1/2

loop_
_atom_site_label
_atom_site_type_symbol
_atom_site_fract_x
_atom_site_fract_y
_atom_site_fract_z
_atom_site_U_iso_or_equiv
_atom_site_symmetry_multiplicity
_atom_site_Wyckoff_symbol
_atom_site_occupancy
Fe1 Fe 0.3906 0.2905 0.406 0.026 8 b 1.0
O2 O 0.355 0.15 0.049 0.002 8 b 1.0
O3 O 0.5 0.5 0.127 0.018 4 a 1.0

