data_04-014-4971
#Copyright 2021 International Centre for Diffraction Data. All rights reserved.

_audit_creation_date                  2021-12-16
_audit_creation_method                'Generated by PDF-4+ 2022 4.22.0.2'

_chemical_name_systematic             'Iron Oxide'
_chemical_formula_moiety              'Fe3 O4'
_chemical_formula_sum                 'Fe3 O4'
_chemical_formula_weight              231.53

_cell_length_a                        2.7992(3)
_cell_length_b                        9.4097(15)
_cell_length_c                        9.4832(9)
_cell_angle_alpha                     90
_cell_angle_beta                      90
_cell_angle_gamma                     90
_cell_formula_units_Z                 4
_cell_volume                          249.78
_symmetry_cell_setting                orthorhombic
_symmetry_space_group_name_H-M        Pbcm
_symmetry_Int_Tables_number           57

loop_
_symmetry_equiv_pos_site_id
_symmetry_equiv_pos_as_xyz
1 x,y,z
2 -x,-y,-z
3 -x,-y,z+1/2
4 x,y,-z+1/2
5 x,-y+1/2,-z
6 -x,y+1/2,z
7 -x,y+1/2,-z+1/2
8 x,-y+1/2,z+1/2

loop_
_atom_site_label
_atom_site_type_symbol
_atom_site_fract_x
_atom_site_fract_y
_atom_site_fract_z
_atom_site_U_iso_or_equiv
_atom_site_symmetry_multiplicity
_atom_site_Wyckoff_symbol
_atom_site_occupancy
Fe1 Fe 0.724 0.3757 0.25 . 4 d 1.0
Fe2 Fe 0.246 0.1107 0.0879 . 8 e 1.0
O3 O 0.506 0.25 0.0 . 4 c 1.0
O4 O 0.18 0.2447 0.25 . 4 d 1.0
O5 O 0.296 0.4899 0.098 . 8 e 1.0

