data_01-072-0567
#Copyright 2021 International Centre for Diffraction Data. All rights reserved.

_audit_creation_date                  2021-12-16
_audit_creation_method                'Generated by PDF-4+ 2022 4.22.0.2'

_chemical_name_systematic             'Iron Vanadium Oxide'
_chemical_formula_moiety              'Fe0.75 V0.75 V0.5 O4'
_chemical_formula_sum                 'Fe0.75 O4 V1.25'
_chemical_formula_weight              169.56

_cell_length_a                        4.49
_cell_length_b                        5.55
_cell_length_c                        4.88
_cell_angle_alpha                     90
_cell_angle_beta                      90
_cell_angle_gamma                     90
_cell_formula_units_Z                 2
_cell_volume                          121.61
_symmetry_cell_setting                triclinic
_symmetry_space_group_name_H-M        P-1
_symmetry_Int_Tables_number           2

loop_
_symmetry_equiv_pos_site_id
_symmetry_equiv_pos_as_xyz
1 x,y,z
2 -x,-y,-z

loop_
_atom_site_label
_atom_site_type_symbol
_atom_site_fract_x
_atom_site_fract_y
_atom_site_fract_z
_atom_site_U_iso_or_equiv
_atom_site_symmetry_multiplicity
_atom_site_Wyckoff_symbol
_atom_site_occupancy
V1 V 0.9996 0.17 0.2524 0.01323 2 i 0.625
Fe2 Fe 0.9996 0.17 0.2524 0.01323 2 i 0.375
V3 V 0.4997 0.6697 0.2475 0.01373 2 i 0.625
Fe4 Fe 0.4997 0.6697 0.2475 0.01373 2 i 0.375
O5 O 0.2659 0.379 0.416 0.00967 2 i 1.0
O6 O 0.2306 0.119 0.9151 0.01067 2 i 1.0
O7 O 0.2658 0.6215 0.9154 0.00807 2 i 1.0
O8 O 0.7635 0.1206 0.5848 0.00667 2 i 1.0

loop_
_atom_site_aniso_label
_atom_site_aniso_U_11
_atom_site_aniso_U_12
_atom_site_aniso_U_13
_atom_site_aniso_U_22
_atom_site_aniso_U_23
_atom_site_aniso_U_33
V1 0.0137 3.0E-4 0.0014 0.015 -0.0021 0.011
Fe2 0.0137 3.0E-4 0.0014 0.015 -0.0021 0.011
V3 0.0137 -4.0E-4 -7.0E-4 0.0165 0.003 0.011
Fe4 0.0137 -4.0E-4 -7.0E-4 0.0165 0.003 0.011
O5 0.008 0.0 2.0E-4 0.011 0.001 0.01
O6 0.014 0.001 3.0E-4 0.01 -1.0E-4 0.008
O7 0.014 -0.0023 0.0024 0.0092 -1.0E-4 0.001
O8 0.009 -1.0E-4 1.0E-4 0.01 2.5E-4 0.001

