data_04-011-3395
#Copyright 2021 International Centre for Diffraction Data. All rights reserved.

_audit_creation_date                  2021-12-16
_audit_creation_method                'Generated by PDF-4+ 2022 4.22.0.2'

_chemical_name_systematic             'Vanadium Iron Oxide'
_chemical_formula_moiety              'V11.5 Fe6.5 O35'
_chemical_formula_sum                 'Fe6.5 O35 V11.5'
_chemical_formula_weight              1508.78

_cell_length_a                        10.209(3)
_cell_length_b                        9.387(3)
_cell_length_c                        6.564(2)
_cell_angle_alpha                     100.52(5)
_cell_angle_beta                      94.35(5)
_cell_angle_gamma                     98.85(4)
_cell_formula_units_Z                 1
_cell_volume                          607.60
_symmetry_cell_setting                triclinic
_symmetry_space_group_name_H-M        P-1
_symmetry_Int_Tables_number           2

loop_
_symmetry_equiv_pos_site_id
_symmetry_equiv_pos_as_xyz
1 x,y,z
2 -x,-y,-z

loop_
_atom_site_label
_atom_site_type_symbol
_atom_site_fract_x
_atom_site_fract_y
_atom_site_fract_z
_atom_site_U_iso_or_equiv
_atom_site_symmetry_multiplicity
_atom_site_Wyckoff_symbol
_atom_site_occupancy
Fe1 Fe 0.38198 0.00505 0.34189 0.00655 2 i 0.806
V2 V 0.38198 0.00505 0.34189 0.00655 2 i 0.194
Fe3 Fe 0.41738 0.30556 0.20229 0.00786 2 i 0.806
V4 V 0.41738 0.30556 0.20229 0.00786 2 i 0.194
V5+5 V5+ 0.70031 0.00284 0.16619 0.00609 2 i 1.0
V5+6 V5+ 0.50781 0.68489 0.29032 0.00586 2 i 1.0
V5+7 V5+ 0.10557 0.30164 0.38373 0.0059 2 i 1.0
Fe3+8 Fe3+ 0.01298 0.93745 0.25177 0.02656 2 i 0.5
V4+9 V4+ 0.01298 0.93745 0.25177 0.02656 2 i 0.5
Fe10 Fe 0.81805 0.64649 0.09079 0.0076 2 i 0.806
V11 V 0.81805 0.64649 0.09079 0.0076 2 i 0.194
V4+12 V4+ 0.78192 0.37963 0.2724 0.00788 2 i 0.667
Fe3+13 Fe3+ 0.78192 0.37963 0.2724 0.00788 2 i 0.333
V4+14 V4+ 0.18551 0.71694 0.21951 0.00628 2 i 1.0
O15 O 0.0 0.0 0.0 0.01305 1 a 1.0
O16 O 0.4315 0.5232 0.3132 0.01182 2 i 1.0
O17 O 0.0024 0.7301 0.1513 0.00878 2 i 1.0
O18 O 0.6064 0.3418 0.2416 0.01707 2 i 1.0
O19 O 0.9879 0.3871 0.3109 0.01034 2 i 1.0
O20 O 0.8084 0.595 0.3788 0.00868 2 i 1.0
O21 O 0.4046 0.2252 0.4674 0.00964 2 i 1.0
O22 O 0.1927 0.6512 0.4332 0.01177 2 i 1.0
O23 O 0.386 0.0807 0.0776 0.00994 2 i 1.0
O24 O 0.384 0.7852 0.2255 0.00839 2 i 1.0
O25 O 0.1923 0.5625 0.9919 0.00828 2 i 1.0
O26 O 0.7808 0.1679 0.1476 0.01166 2 i 1.0
O27 O 0.1974 0.9274 0.3016 0.00918 2 i 1.0
O28 O 0.0327 0.1318 0.43 0.00981 2 i 1.0
O29 O 0.8128 0.8962 0.2263 0.01101 2 i 1.0
O30 O 0.6127 0.6631 0.0936 0.00965 2 i 1.0
O31 O 0.5875 0.0171 0.3575 0.00905 2 i 1.0
O32 O 0.2113 0.2951 0.1843 0.00943 2 i 1.0

loop_
_atom_site_aniso_label
_atom_site_aniso_U_11
_atom_site_aniso_U_12
_atom_site_aniso_U_13
_atom_site_aniso_U_22
_atom_site_aniso_U_23
_atom_site_aniso_U_33
Fe1 0.0065 0.0011 2.0E-4 0.0066 0.0011 0.0064
V2 0.0065 0.0011 2.0E-4 0.0066 0.0011 0.0064
Fe3 0.0113 6.0E-4 0.0 0.0062 0.0016 0.0058
V4 0.0113 6.0E-4 0.0 0.0062 0.0016 0.0058
V5+5 0.006 0.0011 9.0E-4 0.0065 6.0E-4 0.0056
V5+6 0.0063 0.002 0.001 0.0061 0.001 0.0055
V5+7 0.0069 0.0013 0.001 0.0059 5.0E-4 0.0048
Fe3+8 0.0091 0.0025 0.0 0.0106 -0.0082 0.0541
V4+9 0.0091 0.0025 0.0 0.0106 -0.0082 0.0541
Fe10 0.0074 0.0011 5.0E-4 0.0082 0.0018 0.0072
V11 0.0074 0.0011 5.0E-4 0.0082 0.0018 0.0072
V4+12 0.0141 0.0014 0.0013 0.0044 6.0E-4 0.005
Fe3+13 0.0141 0.0014 0.0013 0.0044 6.0E-4 0.005
V4+14 0.0067 0.0015 0.0011 0.0063 0.0014 0.0061
O15 0.0164 0.0014 0.0016 0.0129 0.0057 0.0108
O16 0.0126 0.0024 0.0029 0.0094 0.001 0.0134
O17 0.0068 9.0E-4 5.0E-4 0.0075 -0.0012 0.0107
O18 0.0205 0.0092 0.009 0.0156 0.0064 0.0193
O19 0.0102 0.0037 8.0E-4 0.0104 0.0013 0.0107
O20 0.0115 0.001 8.0E-4 0.0074 -8.0E-4 0.0061
O21 0.012 0.0036 6.0E-4 0.0073 0.0024 0.0104
O22 0.0144 0.002 0.0015 0.0119 0.0027 0.0092
O23 0.0115 7.0E-4 7.0E-4 0.0088 0.002 0.0092
O24 0.0082 7.0E-4 3.0E-4 0.0065 3.0E-4 0.0097
O25 0.0102 0.0019 0.0013 0.007 0.0014 0.0078
O26 0.0114 2.0E-4 0.0031 0.0076 2.0E-4 0.015
O27 0.0059 2.0E-4 -5.0E-4 0.0074 2.0E-4 0.013
O28 0.0116 0.001 0.0016 0.0084 2.0E-4 0.0087
O29 0.0091 0.0028 0.0 0.0125 0.0049 0.0125
O30 0.0103 0.0022 0.0016 0.0126 0.0023 0.0064
O31 0.0081 0.001 9.0E-4 0.0114 0.0028 0.0078
O32 0.0094 0.0043 2.0E-4 0.0131 0.0018 0.0064

