data_Nb0.67_Mn1.33_O3_-_04-015-6758
#Copyright 2019 International Centre for Diffraction Data. All rights reserved.

_audit_creation_date                  2019-11-12
_audit_creation_method                'Generated by PDF-4+ 2020 4.20.0.1'

_chemical_name_systematic             'Manganese Niobium Oxide'
_chemical_formula_moiety              'Nb0.67 Mn1.33 O3'
_chemical_formula_sum                 'Mn1.33 Nb0.67 O3'
_chemical_formula_weight              183.31

_cell_length_a                        5.34139(2)
_cell_length_b                        5.34139(2)
_cell_length_c                        14.15807(7)
_cell_angle_alpha                     90
_cell_angle_beta                      90
_cell_angle_gamma                     120
_cell_volume                          349.82
_cell_formula_units_Z                 6.00
_symmetry_cell_setting                rhombohedral
_symmetry_space_group_name_H-M        R3c
_symmetry_Int_Tables_number           161

loop_
_symmetry_equiv_pos_site_id
_symmetry_equiv_pos_as_xyz
1 x,y,z
2 -y,x-y,z
3 -x+y,-x,z
4 -y,-x,z+1/2
5 x,x-y,z+1/2
6 -x+y,y,z+1/2
7 x+2/3,y+1/3,z+1/3
8 -y+2/3,x-y+1/3,z+1/3
9 -x+y+2/3,-x+1/3,z+1/3
10 -y+2/3,-x+1/3,z+5/6
11 x+2/3,x-y+1/3,z+5/6
12 -x+y+2/3,y+1/3,z+5/6
13 x+1/3,y+2/3,z+2/3
14 -y+1/3,x-y+2/3,z+2/3
15 -x+y+1/3,-x+2/3,z+2/3
16 -y+1/3,-x+2/3,z+1/6
17 x+1/3,x-y+2/3,z+1/6
18 -x+y+1/3,y+2/3,z+1/6

loop_
_atom_site_label
_atom_site_type_symbol
_atom_site_fract_x
_atom_site_fract_y
_atom_site_fract_z
_atom_site_U_iso_or_equiv
_atom_site_symmetry_multiplicity
_atom_site_Wyckoff_symbol
_atom_site_occupancy
Mn1 Mn 0.0 0.0 0.28225 0.00929 6 a 1.0
Nb2 Nb 0.0 0.0 0.0 0.0154 6 a 0.65
Mn3 Mn 0.0 0.0 0.0 0.0154 6 a 0.35
O4 O 0.0533 0.3479 0.0666 0.015 18 b 1.0

loop_
_atom_site_aniso_label
_atom_site_aniso_U_11
_atom_site_aniso_U_12
_atom_site_aniso_U_13
_atom_site_aniso_U_22
_atom_site_aniso_U_23
_atom_site_aniso_U_33
Mn1 0.0124 0.00622 0.0 0.0124 0.0 0.0031
Nb2 0.0102 0.00509 0.0 0.0102 0.0 0.0258
Mn3 0.0102 0.00509 0.0 0.0102 0.0 0.0258

