data_V4_O7_-_04-005-4280
#Copyright 2019 International Centre for Diffraction Data. All rights reserved.

_audit_creation_date                  2019-11-12
_audit_creation_method                'Generated by PDF-4+ 2020 4.20.0.1'

_chemical_name_systematic             'Vanadium Oxide'
_chemical_formula_moiety              'V4 O7'
_chemical_formula_sum                 'O7 V4'
_chemical_formula_weight              315.76

_cell_length_a                        5.504(3)
_cell_length_b                        7.007(4)
_cell_length_c                        19.243(9)
_cell_angle_alpha                     41.3(1)
_cell_angle_beta                      72.5(1)
_cell_angle_gamma                     109.4(1)
_cell_volume                          216.08
_cell_formula_units_Z                 2.00
_symmetry_cell_setting                triclinic
_symmetry_space_group_name_H-M        P-1
_symmetry_Int_Tables_number           2

loop_
_symmetry_equiv_pos_site_id
_symmetry_equiv_pos_as_xyz
1 x,y,z
2 -x,-y,-z

loop_
_atom_site_label
_atom_site_type_symbol
_atom_site_fract_x
_atom_site_fract_y
_atom_site_fract_z
_atom_site_B_iso_or_equiv
_atom_site_symmetry_multiplicity
_atom_site_Wyckoff_symbol
_atom_site_occupancy
V1 V -0.00698 0.4482 0.09478 0.45 2 i 1.0
V2 V -0.01739 -0.061 0.10066 0.34 2 i 1.0
V3 V -0.01163 0.487 0.36698 0.43 2 i 1.0
V4 V -0.03145 -0.0363 0.37327 0.37 2 i 1.0
O5 O 0.6973 0.4174 0.0498 1.04 2 i 1.0
O6 O 0.323 0.556 0.1039 0.98 2 i 1.0
O7 O 0.6896 0.4735 0.1684 0.78 2 i 1.0
O8 O 0.3829 0.6268 0.2235 0.71 2 i 1.0
O9 O 0.6934 0.4161 0.3317 1.01 2 i 1.0
O10 O 0.3026 0.5661 0.3924 1.05 2 i 1.0
O11 O 0.6602 0.4332 0.4697 0.67 2 i 1.0

