data_V5_O9_-_04-007-0445
#Copyright 2019 International Centre for Diffraction Data. All rights reserved.

_audit_creation_date                  2019-11-12
_audit_creation_method                'Generated by PDF-4+ 2020 4.20.0.1'

_chemical_name_systematic             'Vanadium Oxide'
_chemical_formula_moiety              'V5 O9'
_chemical_formula_sum                 'O9 V5'
_chemical_formula_weight              398.70

_cell_length_a                        7.002(2)
_cell_length_b                        8.3516(20)
_cell_length_c                        10.9052(23)
_cell_angle_alpha                     91.91(2)
_cell_angle_beta                      108.39(2)
_cell_angle_gamma                     110.50(2)
_cell_volume                          559.35
_cell_formula_units_Z                 4.00
_symmetry_cell_setting                triclinic
_symmetry_space_group_name_H-M        P-1
_symmetry_Int_Tables_number           2

loop_
_symmetry_equiv_pos_site_id
_symmetry_equiv_pos_as_xyz
1 x,y,z
2 -x,-y,-z

loop_
_atom_site_label
_atom_site_type_symbol
_atom_site_fract_x
_atom_site_fract_y
_atom_site_fract_z
_atom_site_B_iso_or_equiv
_atom_site_symmetry_multiplicity
_atom_site_Wyckoff_symbol
_atom_site_occupancy
V1 V 0.7476 0.00644 0.75577 0.154 2 i 1.0
V2 V 0.58784 0.78814 0.93148 0.145 2 i 1.0
V3 V 0.56836 0.43005 0.8836 0.137 2 i 1.0
V4 V 0.24718 -0.00469 0.75262 0.166 2 i 1.0
V5 V 0.09433 0.79979 0.91712 0.148 2 i 1.0
V6 V 0.93607 0.57808 0.11016 0.13 2 i 1.0
V7 V 0.93144 0.21598 0.57272 0.145 2 i 1.0
V8 V 0.06263 0.42146 0.39242 0.147 2 i 1.0
V9 V 0.4083 0.19497 0.5658 0.133 2 i 1.0
V10 V 0.56156 0.40927 0.39304 0.131 2 i 1.0
O11 O 0.48842 0.91514 0.29485 0.327 2 i 1.0
O12 O 0.30436 0.6799 0.45289 0.311 2 i 1.0
O13 O 0.35492 0.86954 0.87953 0.322 2 i 1.0
O14 O 0.17669 0.63287 0.04236 0.294 2 i 1.0
O15 O 0.20374 0.96731 0.05821 0.335 2 i 1.0
O16 O 0.04505 0.75165 0.23477 0.347 2 i 1.0
O17 O 0.86631 0.53543 0.4054 0.301 2 i 1.0
O18 O 0.38012 0.20312 0.88738 0.318 2 i 1.0
O19 O 0.47675 0.57386 0.28102 0.346 2 i 1.0
O20 O 0.01656 0.07691 0.20866 0.341 2 i 1.0
O21 O 0.19417 0.32441 0.047 0.312 2 i 1.0
O22 O 0.16692 0.14495 0.62349 0.34 2 i 1.0
O23 O 0.32586 0.36767 0.46044 0.297 2 i 1.0
O24 O 0.2842 0.02054 0.43551 0.328 2 i 1.0
O25 O 0.45526 0.24202 0.26453 0.343 2 i 1.0
O26 O 0.62805 0.46083 0.09261 0.311 2 i 1.0
O27 O 0.87117 0.1848 0.38572 0.344 2 i 1.0
O28 O 0.00911 0.41016 0.21031 0.331 2 i 1.0

