data_00-056-0456
#Copyright 2022 International Centre for Diffraction Data. All rights reserved.

_audit_creation_date                  2022-11-15
_audit_creation_method                'Generated by PDF-4+ 2022 4.22.0.2'

_chemical_name_systematic             'Aluminum Oxide'
_chemical_name_common                 '\q-Al2 O3'
_chemical_formula_moiety              'Al2 O3'
_chemical_formula_sum                 'Al2 O3'
_chemical_formula_weight              101.96

_cell_length_a                        11.854(5)
_cell_length_b                        2.904(1)
_cell_length_c                        5.622(2)
_cell_angle_alpha                     90
_cell_angle_beta                      103.83(7)
_cell_angle_gamma                     90
_cell_formula_units_Z                 4
_cell_volume                          187.92
_symmetry_cell_setting                monoclinic
_symmetry_space_group_name_H-M        C2/m
_symmetry_Int_Tables_number           12

loop_
_symmetry_equiv_pos_site_id
_symmetry_equiv_pos_as_xyz
1 x,y,z
2 -x,-y,-z
3 x,-y,z
4 -x,y,-z
5 x+1/2,y+1/2,z
6 -x+1/2,-y+1/2,-z
7 x+1/2,-y+1/2,z
8 -x+1/2,y+1/2,-z

loop_
_atom_site_label
_atom_site_type_symbol
_atom_site_fract_x
_atom_site_fract_y
_atom_site_fract_z
_atom_site_U_iso_or_equiv
_atom_site_symmetry_multiplicity
_atom_site_Wyckoff_symbol
_atom_site_occupancy
O1 O 0.8272 0.0 0.4273 . 4 i 1.0
O2 O 0.495 0.0 0.2526 . 4 i 0.93
O3 O 0.1611 0.0 0.0984 . 4 i 0.8
Al4 Al 0.6595 0.0 0.3165 . 4 i 0.9
Al5 Al 0.9166 0.0 0.2073 . 4 i 0.92

