data_04-012-5215
#Copyright 2022 International Centre for Diffraction Data. All rights reserved.

_audit_creation_date                  2022-11-15
_audit_creation_method                'Generated by PDF-4+ 2022 4.22.0.2'

_chemical_name_systematic             'Strontium Aluminum Oxide'
_chemical_formula_moiety              'Sr7 Al12 O25'
_chemical_formula_sum                 'Al12 O25 Sr7'
_chemical_formula_weight              1337.10

_cell_length_a                        17.91
_cell_length_b                        17.91
_cell_length_c                        7.16
_cell_angle_alpha                     90
_cell_angle_beta                      90
_cell_angle_gamma                     120
_cell_formula_units_Z                 3
_cell_volume                          1989.00
_symmetry_cell_setting                hexagonal
_symmetry_space_group_name_H-M        P3
_symmetry_Int_Tables_number           143

loop_
_symmetry_equiv_pos_site_id
_symmetry_equiv_pos_as_xyz
1 x,y,z
2 -y,x-y,z
3 -x+y,-x,z

loop_
_atom_site_label
_atom_site_type_symbol
_atom_site_fract_x
_atom_site_fract_y
_atom_site_fract_z
_atom_site_U_iso_or_equiv
_atom_site_symmetry_multiplicity
_atom_site_Wyckoff_symbol
_atom_site_occupancy
Sr1 Sr 0.5539 0.4789 0.0 . 3 d 1.0
Sr2 Sr 0.1484 0.2558 0.1542 . 3 d 1.0
Sr3 Sr 0.414 0.2246 0.8183 . 3 d 1.0
Sr4 Sr 0.1904 0.4114 0.666 . 3 d 1.0
Sr5 Sr 0.2578 0.1093 0.3378 . 3 d 1.0
Sr6 Sr 0.0781 0.5605 0.4853 . 3 d 1.0
Sr7 Sr 0.0 0.0 0.4509 . 1 a 0.5
Sr8 Sr 0.0 0.0 0.052 . 1 a 0.5
Sr9 Sr 0.33333 0.66666 0.782 . 1 b 0.5
Sr10 Sr 0.33333 0.66666 0.3911 . 1 b 0.5
Sr11 Sr 0.66666 0.33333 0.1115 . 1 c 0.5
Sr12 Sr 0.66666 0.33333 0.7219 . 1 c 0.5
Al13 Al 0.2636 0.2792 0.5292 . 3 d 1.0
Al14 Al 0.0527 0.6484 0.8632 . 3 d 1.0
Al15 Al 0.0781 0.1953 0.7138 . 3 d 1.0
Al16 Al 0.1953 0.1171 0.7841 . 3 d 1.0
Al17 Al 0.4687 0.2138 0.3789 . 3 d 1.0
Al18 Al 0.3857 0.3134 0.1953 . 3 d 1.0
Al19 Al 0.2792 0.0156 0.9628 . 3 d 1.0
Al20 Al 0.5449 0.4082 0.4511 . 3 d 1.0
Al21 Al 0.4062 0.0527 0.6279 . 3 d 1.0
Al22 Al 0.2558 0.4707 0.1162 . 3 d 1.0
Al23 Al 0.0751 0.3896 0.2939 . 3 d 1.0
Al24 Al 0.4501 0.5888 0.0419 . 3 d 1.0
O25 O 0.2509 0.1015 0.9638 . 3 d 1.0
O26 O 0.0625 0.4687 0.1904 . 3 d 1.0
O27 O 0.6552 0.0468 0.9619 . 3 d 1.0
O28 O 0.5986 0.0615 0.3134 . 3 d 1.0
O29 O 0.3974 0.1328 0.5185 . 3 d 1.0
O30 O 0.2783 0.2031 0.6523 . 3 d 1.0
O31 O 0.0722 0.2724 0.8525 . 3 d 1.0
O32 O 0.289 0.2705 0.2929 . 3 d 1.0
O33 O 0.5214 0.083 0.6289 . 3 d 1.0
O34 O 0.2626 0.3916 0.9824 . 3 d 1.0
O35 O 0.0478 0.3825 0.539 . 3 d 1.0
O36 O 0.1826 0.416 0.2978 . 3 d 1.0
O37 O 0.4355 0.5156 0.8691 . 3 d 1.0
O38 O 0.1503 0.2509 0.5351 . 3 d 1.0
O39 O 0.415 0.2314 0.2021 . 3 d 1.0
O40 O 0.3173 0.3759 0.6328 . 3 d 1.0
O41 O 0.3798 0.0566 0.873 . 3 d 1.0
O42 O 0.5166 0.3056 0.5361 . 3 d 1.0
O43 O 0.0136 0.2861 0.207 . 3 d 1.0
O44 O 0.123 0.1455 0.8701 . 3 d 1.0
O45 O 0.1376 0.0253 0.6542 . 3 d 1.0
O46 O 0.6386 0.4453 0.3173 . 3 d 1.0
O47 O 0.2177 0.5234 0.9736 . 3 d 1.0
O48 O 0.1875 0.6406 0.2001 . 3 d 1.0
O49 O 0.0 0.0 0.5621 . 1 a 0.5
O50 O 0.0 0.0 0.9418 . 1 a 0.5
O51 O 0.33333 0.66666 0.8915 . 1 b 0.5
O52 O 0.33333 0.66666 0.2821 . 1 b 0.5
O53 O 0.66666 0.33333 0.2311 . 1 c 0.5
O54 O 0.66666 0.33333 0.6019 . 1 c 0.5

