data_04-012-6694
#Copyright 2022 International Centre for Diffraction Data. All rights reserved.

_audit_creation_date                  2022-11-15
_audit_creation_method                'Generated by PDF-4+ 2022 4.22.0.2'

_chemical_name_systematic             'Aluminum Oxide'
_chemical_name_common                 '\d*-Al2.67 O4'
_chemical_formula_moiety              'Al2.67 O4'
_chemical_formula_sum                 'Al2.67 O4'
_chemical_formula_weight              136.04

_cell_length_a                        5.599
_cell_length_b                        5.599
_cell_length_c                        23.657
_cell_angle_alpha                     90
_cell_angle_beta                      90
_cell_angle_gamma                     90
_cell_formula_units_Z                 12
_cell_volume                          741.62
_symmetry_cell_setting                tetragonal
_symmetry_space_group_name_H-M        P-4m2
_symmetry_Int_Tables_number           115

loop_
_symmetry_equiv_pos_site_id
_symmetry_equiv_pos_as_xyz
1 x,y,z
2 -x,-y,z
3 -x,y,z
4 x,-y,z
5 -y,x,-z
6 y,-x,-z
7 y,x,-z
8 -y,-x,-z

loop_
_atom_site_label
_atom_site_type_symbol
_atom_site_fract_x
_atom_site_fract_y
_atom_site_fract_z
_atom_site_B_iso_or_equiv
_atom_site_symmetry_multiplicity
_atom_site_Wyckoff_symbol
_atom_site_occupancy
O1 O 0.26891 0.0 0.12881 1.5 4 j 1.0
O2 O 0.2951 0.0 0.29863 1.5 4 j 1.0
O3 O 0.25952 0.0 0.46006 1.5 4 j 1.0
O4 O 0.28217 0.0 0.62593 1.5 4 j 1.0
O5 O 0.24368 0.0 0.78557 1.5 4 j 1.0
O6 O 0.23806 0.0 0.94791 1.5 4 j 1.0
O7 O 0.23319 0.5 0.125 1.5 4 k 1.0
O8 O 0.27075 0.5 0.29167 1.5 4 k 1.0
O9 O 0.2515 0.5 0.4569 1.5 4 k 1.0
O10 O 0.2755 0.5 0.63276 1.5 4 k 1.0
O11 O 0.24 0.5 0.79 1.5 4 k 1.0
O12 O 0.27548 0.5 0.96057 1.5 4 k 1.0
Al13 Al 0.0 0.0 0.0 2.06 1 a 1.0
Al14 Al 0.5 0.5 0.5 2.06 1 c 1.0
Al15 Al 0.0 0.0 0.33333 2.06 2 e 1.0
Al16 Al 0.0 0.5 0.25495 2.06 2 g 1.0
Al17 Al 0.0 0.5 0.58995 2.06 2 g 1.0
Al18 Al 0.0 0.5 0.91896 2.06 2 g 1.0
Al19 Al 0.5 0.5 0.16667 2.06 2 f 1.0
Al20 Al 0.26077 0.0 0.2148 1.28 4 j 0.833
Al21 Al 0.27078 0.0 0.548 1.28 4 j 0.833
Al22 Al 0.2604 0.0 0.86808 1.28 4 j 0.833
Al23 Al 0.26886 0.5 0.04765 1.28 4 k 0.833
Al24 Al 0.2722 0.5 0.37044 1.28 4 k 0.833
Al25 Al 0.26034 0.5 0.70899 1.28 4 k 0.833

