data_04-010-5791
#Copyright 2022 International Centre for Diffraction Data. All rights reserved.

_audit_creation_date                  2022-11-15
_audit_creation_method                'Generated by PDF-4+ 2022 4.22.0.2'

_chemical_name_systematic             'Strontium Aluminum Oxide'
_chemical_name_common                 'decatrontium hexaaluminum oxide'
_chemical_formula_moiety              'Sr10 Al6 O19'
_chemical_formula_sum                 'Al6 O19 Sr10'
_chemical_formula_weight              1342.07

_cell_length_a                        34.5823(21)
_cell_length_b                        7.8460(6)
_cell_length_c                        15.7485(9)
_cell_angle_alpha                     90
_cell_angle_beta                      103.68(1)
_cell_angle_gamma                     90
_cell_formula_units_Z                 8
_cell_volume                          4151.86
_symmetry_cell_setting                monoclinic
_symmetry_space_group_name_H-M        C2/c
_symmetry_Int_Tables_number           15

loop_
_symmetry_equiv_pos_site_id
_symmetry_equiv_pos_as_xyz
1 x,y,z
2 -x,-y,-z
3 -x,y,-z+1/2
4 x,-y,z+1/2
5 x+1/2,y+1/2,z
6 -x+1/2,-y+1/2,-z
7 -x+1/2,y+1/2,-z+1/2
8 x+1/2,-y+1/2,z+1/2

loop_
_atom_site_label
_atom_site_type_symbol
_atom_site_fract_x
_atom_site_fract_y
_atom_site_fract_z
_atom_site_U_iso_or_equiv
_atom_site_symmetry_multiplicity
_atom_site_Wyckoff_symbol
_atom_site_occupancy
Sr1 Sr 0.126 0.2503 0.32715 0.01667 8 f 1.0
Sr2 Sr 0.11981 0.7034 0.07483 0.01615 8 f 1.0
Sr3 Sr 0.06428 0.4573 0.16782 0.01457 8 f 1.0
Sr4 Sr 6.5E-4 0.7555 0.0249 0.01788 8 f 1.0
Sr5 Sr 0.18651 0.0237 0.47679 0.01439 8 f 1.0
Sr6 Sr 0.12498 0.7504 0.32137 0.01808 8 f 1.0
Sr7 Sr 0.25029 0.2291 0.34998 0.01949 8 f 1.0
Sr8 Sr 0.1306 0.2398 0.06258 0.01827 8 f 1.0
Sr9 Sr 0.0 0.7175 0.25 0.02141 4 e 1.0
Sr10 Sr 0.0 0.1632 0.25 0.01945 4 e 1.0
Sr11 Sr 0.25108 0.2523 0.11738 0.01806 8 f 1.0
Al12 Al 0.05658 0.5355 -0.0898 0.01324 8 f 1.0
Al13 Al 0.06441 0.981 -0.0671 0.01299 8 f 1.0
Al14 Al 0.07395 0.99 0.1513 0.01264 8 f 1.0
Al15 Al 0.17882 0.9654 0.2152 0.01353 8 f 1.0
Al16 Al 0.18513 0.5132 0.2381 0.01185 8 f 1.0
Al17 Al 0.19423 0.4933 0.4615 0.01357 8 f 1.0
O18 O 0.1858 0.0543 0.32 0.02054 8 f 1.0
O19 O 0.1675 0.3225 0.4913 0.01857 8 f 1.0
O20 O 0.0233 0.069 -0.1398 0.02123 8 f 1.0
O21 O 0.0625 0.7741 0.168 0.02097 8 f 1.0
O22 O 0.2271 0.4373 0.2087 0.02229 8 f 1.0
O23 O 0.0558 0.0337 0.0378 0.02259 8 f 1.0
O24 O 0.1892 0.4682 0.3484 0.02979 8 f 1.0
O25 O 0.1372 0.4519 0.1827 0.01828 8 f 1.0
O26 O 0.0646 0.1594 0.2141 0.01916 8 f 1.0
O27 O 0.0816 0.4848 -0.1713 0.0192 8 f 1.0
O28 O 0.0623 0.756 -0.0675 0.02662 8 f 1.0
O29 O 0.1261 0.9811 0.1658 0.02349 8 f 1.0
O30 O 0.2447 0.4843 0.5129 0.02558 8 f 1.0
O31 O 0.0734 0.4417 0.0147 0.02155 8 f 1.0
O32 O 0.1129 0.0333 -0.0732 0.0199 8 f 1.0
O33 O 0.1863 0.74 0.2304 0.02119 8 f 1.0
O34 O 0.005 0.5027 -0.1241 0.02246 8 f 1.0
O35 O 0.1789 0.7071 0.4715 0.02305 8 f 1.0
O36 O 0.2005 0.0377 0.1336 0.02251 8 f 1.0

loop_
_atom_site_aniso_label
_atom_site_aniso_U_11
_atom_site_aniso_U_12
_atom_site_aniso_U_13
_atom_site_aniso_U_22
_atom_site_aniso_U_23
_atom_site_aniso_U_33
Sr1 0.016 0.0 0.002 0.015 0.0 0.018
Sr2 0.017 -0.001 0.005 0.016 -0.001 0.016
Sr3 0.013 0.0 0.004 0.015 0.001 0.016
Sr4 0.019 0.002 0.005 0.018 0.001 0.017
Sr5 0.013 0.002 0.003 0.015 0.0 0.015
Sr6 0.021 -0.002 0.006 0.017 -0.001 0.017
Sr7 0.018 0.0 0.008 0.018 0.002 0.024
Sr8 0.022 0.001 0.007 0.017 -0.001 0.017
Sr9 0.032 0.0 0.005 0.018 0.0 0.014
Sr10 0.018 0.0 0.008 0.02 0.0 0.022
Sr11 0.019 0.001 0.006 0.018 -0.001 0.018
Al12 0.015 0.0 0.004 0.011 0.001 0.014
Al13 0.014 -0.001 0.003 0.014 -0.001 0.011
Al14 0.009 0.001 0.003 0.014 -0.001 0.015
Al15 0.014 0.001 0.002 0.013 -0.001 0.013
Al16 0.013 -0.001 0.004 0.01 -0.002 0.013
Al17 0.014 -0.001 0.004 0.012 0.001 0.015
O18 0.019 -0.001 0.007 0.027 -0.002 0.017
O19 0.024 0.001 0.012 0.013 0.003 0.022
O20 0.018 0.003 0.005 0.027 -0.001 0.019
O21 0.025 0.001 0.002 0.012 0.0 0.024
O22 0.011 0.004 0.005 0.027 0.0 0.029
O23 0.028 0.006 0.004 0.02 0.001 0.019
O24 0.042 -0.007 0.002 0.03 0.0 0.015
O25 0.013 -0.002 0.002 0.023 -0.003 0.018
O26 0.023 -0.004 0.006 0.016 -0.001 0.019
O27 0.03 0.004 0.01 0.016 0.0 0.014
O28 0.037 -0.005 0.006 0.014 0.003 0.028
O29 0.016 -0.002 0.003 0.019 -0.004 0.034
O30 0.013 -0.001 0.005 0.039 0.002 0.025
O31 0.026 0.004 0.01 0.022 0.004 0.019
O32 0.014 0.0 0.005 0.023 0.003 0.023
O33 0.025 0.0 0.007 0.012 -0.001 0.027
O34 0.011 0.001 0.0 0.025 0.003 0.029
O35 0.038 -0.001 0.013 0.01 -0.001 0.024
O36 0.03 -0.004 0.008 0.026 0.0 0.013

