data_04-014-9711
#Copyright 2022 International Centre for Diffraction Data. All rights reserved.

_audit_creation_date                  2022-11-15
_audit_creation_method                'Generated by PDF-4+ 2022 4.22.0.2'

_chemical_name_systematic             'Strontium Aluminum Oxide'
_chemical_formula_moiety              'Sr2 Al6 O11'
_chemical_formula_sum                 'Al6 O11 Sr2'
_chemical_formula_weight              513.12

_cell_length_a                        21.9145(8)
_cell_length_b                        4.8843(2)
_cell_length_c                        8.4039(3)
_cell_angle_alpha                     90
_cell_angle_beta                      90
_cell_angle_gamma                     90
_cell_formula_units_Z                 4
_cell_volume                          899.53
_symmetry_cell_setting                orthorhombic
_symmetry_space_group_name_H-M        Pnnm
_symmetry_Int_Tables_number           58

loop_
_symmetry_equiv_pos_site_id
_symmetry_equiv_pos_as_xyz
1 x,y,z
2 -x,-y,-z
3 -x,-y,z
4 x,y,-z
5 x+1/2,-y+1/2,-z+1/2
6 -x+1/2,y+1/2,z+1/2
7 -x+1/2,y+1/2,-z+1/2
8 x+1/2,-y+1/2,z+1/2

loop_
_atom_site_label
_atom_site_type_symbol
_atom_site_fract_x
_atom_site_fract_y
_atom_site_fract_z
_atom_site_B_iso_or_equiv
_atom_site_symmetry_multiplicity
_atom_site_Wyckoff_symbol
_atom_site_occupancy
Sr1 Sr 0.36076 0.12077 0.0 1.72 4 g 1.0
Sr2 Sr 0.15547 0.5346 0.0 1.72 4 g 1.0
Al3 Al 0.0 0.0 0.5 1.36 2 b 1.0
Al4 Al 0.0 0.5 0.0 1.36 2 c 1.0
Al5 Al 0.0 0.5 0.6692 1.36 4 f 1.0
Al6 Al 0.2149 0.12 0.2991 1.36 8 h 1.0
Al7 Al 0.0751 0.0138 0.1812 1.36 8 h 1.0
O8 O 0.0605 0.822 0.0 1.56 4 g 1.0
O9 O 0.2967 0.568 0.0 1.56 4 g 1.0
O10 O 0.453 0.322 0.8421 1.56 8 h 1.0
O11 O 0.3454 0.495 0.327 1.56 8 h 1.0
O12 O 0.4545 0.816 0.0 1.56 4 g 1.0
O13 O 0.9505 0.662 0.8442 1.56 8 h 1.0
O14 O 0.2802 0.951 0.24 1.56 8 h 1.0

