data_04-012-6907
#Copyright 2022 International Centre for Diffraction Data. All rights reserved.

_audit_creation_date                  2022-11-15
_audit_creation_method                'Generated by PDF-4+ 2022 4.22.0.2'

_chemical_name_systematic             'Aluminum Oxide'
_chemical_name_common                 '\k-Al2 O3'
_chemical_formula_moiety              'Al2 O3'
_chemical_formula_sum                 'Al2 O3'
_chemical_formula_weight              101.96

_cell_length_a                        4.8437(2)
_cell_length_b                        8.3300(3)
_cell_length_c                        8.9547(4)
_cell_angle_alpha                     90
_cell_angle_beta                      90
_cell_angle_gamma                     90
_cell_formula_units_Z                 8
_cell_volume                          361.30
_symmetry_cell_setting                orthorhombic
_symmetry_space_group_name_H-M        Pna21
_symmetry_Int_Tables_number           33

loop_
_symmetry_equiv_pos_site_id
_symmetry_equiv_pos_as_xyz
1 x,y,z
2 -x,-y,z+1/2
3 -x+1/2,y+1/2,z+1/2
4 x+1/2,-y+1/2,z

loop_
_atom_site_label
_atom_site_type_symbol
_atom_site_fract_x
_atom_site_fract_y
_atom_site_fract_z
_atom_site_B_iso_or_equiv
_atom_site_symmetry_multiplicity
_atom_site_Wyckoff_symbol
_atom_site_occupancy
Al1 Al 0.6787 0.8416 0.0 0.41 4 a 1.0
Al2 Al 0.1846 0.3432 0.7868 1.32 4 a 1.0
Al3 Al 0.8115 0.6489 0.6972 0.16 4 a 1.0
Al4 Al 0.6677 0.4696 0.9993 0.35 4 a 1.0
O5 O 0.329 0.8313 0.8927 0.27 4 a 1.0
O6 O 0.0248 0.4908 0.6292 0.27 4 a 1.0
O7 O 0.4717 0.6647 0.6381 0.27 4 a 1.0
O8 O 0.5145 0.6728 0.1212 0.27 4 a 1.0
O9 O 0.8608 0.3301 0.8662 0.27 4 a 1.0
O10 O 0.336 0.4992 0.9 0.27 4 a 1.0

